@<TRIPOS>MOLECULE
1h23_ligand_059
    84    87
SMALL
GAST_HUCK
****
This file was generated by PARSER (from files_GN.cpp)

@<TRIPOS>ATOM
      1 C1          2.5245   68.4208   60.7800 C.2         1 E12       0.1811
      2 N2          3.8286   68.2257   60.9587 N.am        1 E12      -0.2230
      3 O7          2.0494   68.3320   59.6575 O.2         1 E12      -0.4310
      4 C4          3.6466   68.5363   63.2837 C.2         1 E12       0.0225
      5 C5          2.3081   68.8214   63.0681 C.2         1 E12      -0.0779
      6 C14         6.5236   68.5171   63.5516 C.3         1 E12      -0.0310
      7 N17         3.4015   67.8334   65.6698 N.4         1 E12       0.2346
      8 C24         2.6070   68.6472   66.6223 C.3         1 E12      -0.0329
      9 C6          1.7438   68.7420   61.8475 C.2         1 E12      -0.0278
     10 C9          5.8626   68.1495   62.2032 C.3         1 E12       0.0189
     11 C10         4.2141   68.5750   64.6502 C.3         1 E12      -0.0032
     12 C13         5.6617   68.0003   64.7225 C.3         1 E12      -0.0041
     13 C63         1.9388   67.8020   67.7349 C.3         1 E12      -0.0126
     14 C29         3.4342   57.1930   70.7338 C.2         1 E12       0.1811
     15 C3          4.4135   68.3142   62.1767 C.2         1 E12       0.0883
     16 N30         3.6365   58.4071   70.2322 N.am        1 E12      -0.2230
     17 C31         2.9045   59.4808   70.6065 C.2         1 E12       0.0883
     18 C32         1.9099   59.3271   71.5248 C.2         1 E12       0.0225
     19 C33         1.7236   58.0706   72.0670 C.2         1 E12      -0.0779
     20 C34         2.4682   57.0160   71.6814 C.2         1 E12      -0.0278
     21 O35         4.1152   56.2599   70.3340 O.2         1 E12      -0.4310
     22 C36         3.1953   60.7486   69.9465 C.3         1 E12       0.0189
     23 C37         0.9017   60.3836   71.7629 C.3         1 E12      -0.0032
     24 C38         1.1388   61.7350   71.0062 C.3         1 E12      -0.0041
     25 C39         1.9100   61.5636   69.6752 C.3         1 E12      -0.0310
     26 N40         0.5770   60.6867   73.1913 N.4         1 E12       0.2346
     27 C41         1.6471   61.2040   74.0837 C.3         1 E12      -0.0329
     28 C64         2.9208   67.3323   68.8508 C.3         1 E12      -0.0483
     29 C65         2.2217   66.8531   70.1563 C.3         1 E12      -0.0529
     30 C66         1.1390   65.7672   69.9184 C.3         1 E12      -0.0531
     31 C67         0.5446   65.1616   71.2204 C.3         1 E12      -0.0531
     32 C68        -0.2419   66.1404   72.1323 C.3         1 E12      -0.0531
     33 C69        -0.4831   65.6977   73.6163 C.3         1 E12      -0.0531
     34 C70        -0.3878   64.1749   73.9984 C.3         1 E12      -0.0529
     35 C71         1.0262   63.7389   74.4949 C.3         1 E12      -0.0483
     36 C72         1.1359   62.2901   75.0739 C.3         1 E12      -0.0126
     37 H1          4.3884   68.0268   60.1867 H           1 E12       0.2526
     38 H2          1.7336   69.1166   63.8159 H           1 E12       0.0600
     39 H3          7.5221   68.0786   63.6039 H           1 E12       0.0298
     40 H4          6.6265   69.6039   63.6293 H           1 E12       0.0298
     41 H5          4.0380   67.2642   66.2321 H           1 E12       0.2022
     42 H6          2.7687   67.1933   65.1861 H           1 E12       0.2022
     43 H7          1.8107   69.1618   66.0918 H           1 E12       0.0814
     44 H8          3.2388   69.4045   67.0903 H           1 E12       0.0814
     45 H9          0.7776   68.9518   61.7254 H           1 E12       0.0298
     46 H10         6.3095   68.7865   61.4361 H           1 E12       0.0511
     47 H11         6.0991   67.1111   61.9546 H           1 E12       0.0511
     48 H12         4.2815   69.6337   64.9245 H           1 E12       0.0913
     49 H13         5.6317   66.9082   64.6785 H           1 E12       0.0333
     50 H14         6.1274   68.2841   65.6663 H           1 E12       0.0333
     51 H15         1.4513   66.9304   67.2844 H           1 E12       0.0317
     52 H16         1.1589   68.4187   68.1944 H           1 E12       0.0317
     53 H17         4.3182   58.5346   69.5498 H           1 E12       0.2526
     54 H18         1.0090   57.9242   72.7362 H           1 E12       0.0600
     55 H19         2.3093   56.1216   72.0756 H           1 E12       0.0298
     56 H20         3.7144   60.5869   68.9934 H           1 E12       0.0511
     57 H21         3.8607   61.3244   70.5972 H           1 E12       0.0511
     58 H22        -0.0325   59.9863   71.3549 H           1 E12       0.0913
     59 H23         1.7191   62.4182   71.6420 H           1 E12       0.0333
     60 H24         0.1660   62.2001   70.7918 H           1 E12       0.0333
     61 H25         1.2905   61.0420   68.9410 H           1 E12       0.0298
     62 H26         2.1742   62.5438   69.2689 H           1 E12       0.0298
     63 H27        -0.1880   61.3660   73.1900 H           1 E12       0.2022
     64 H28         0.2132   59.8297   73.6152 H           1 E12       0.2022
     65 H29         2.0148   60.3515   74.6710 H           1 E12       0.0814
     66 H30         2.4942   61.6037   73.5109 H           1 E12       0.0814
     67 H31         3.5821   68.1645   69.1220 H           1 E12       0.0267
     68 H32         3.5499   66.5240   68.4582 H           1 E12       0.0267
     69 H33         1.7661   67.7189   70.6464 H           1 E12       0.0265
     70 H34         2.9983   66.4624   70.8247 H           1 E12       0.0265
     71 H35         1.5910   64.9473   69.3560 H           1 E12       0.0265
     72 H36         0.3315   66.1906   69.3203 H           1 E12       0.0265
     73 H37         1.3478   64.6764   71.7877 H           1 E12       0.0265
     74 H38        -0.1661   64.3949   70.9030 H           1 E12       0.0265
     75 H39        -1.2134   66.3262   71.6600 H           1 E12       0.0265
     76 H40         0.2884   67.0950   72.1559 H           1 E12       0.0265
     77 H41        -1.4885   66.0429   73.8820 H           1 E12       0.0265
     78 H42         0.1977   66.2681   74.2559 H           1 E12       0.0265
     79 H43        -0.7104   63.5546   73.1569 H           1 E12       0.0265
     80 H44        -1.0959   63.9925   74.8186 H           1 E12       0.0265
     81 H45         1.3092   64.4281   75.3008 H           1 E12       0.0267
     82 H46         1.7535   63.8661   73.6867 H           1 E12       0.0267
     83 H47         0.1764   61.9803   75.5055 H           1 E12       0.0317
     84 H48         1.8596   62.3266   75.8947 H           1 E12       0.0317
@<TRIPOS>BOND
     1     1     9   1
     2     1     3   2
     3     1     2  am
     4     2    15   1
     5    15    10   1
     6    15     4   2
     7     4    11   1
     8     4     5   1
     9     5     9   2
    10    11     7   1
    11    11    12   1
    12    12     6   1
    13     6    10   1
    14     7     8   1
    15     8    13   1
    16    13    28   1
    17    28    29   1
    18    29    30   1
    19    30    31   1
    20    31    32   1
    21    32    33   1
    22    33    34   1
    23    34    35   1
    24    35    36   1
    25    36    27   1
    26    27    26   1
    27    26    23   1
    28    23    24   1
    29    23    18   1
    30    18    19   1
    31    18    17   2
    32    17    22   1
    33    17    16   1
    34    16    14  am
    35    14    20   1
    36    14    21   2
    37    20    19   2
    38    22    25   1
    39    25    24   1
    40     2    37   1
    41     5    38   1
    42     6    39   1
    43     6    40   1
    44     7    41   1
    45     7    42   1
    46     8    43   1
    47     8    44   1
    48     9    45   1
    49    10    46   1
    50    10    47   1
    51    11    48   1
    52    12    49   1
    53    12    50   1
    54    13    51   1
    55    13    52   1
    56    16    53   1
    57    19    54   1
    58    20    55   1
    59    22    56   1
    60    22    57   1
    61    23    58   1
    62    24    59   1
    63    24    60   1
    64    25    61   1
    65    25    62   1
    66    26    63   1
    67    26    64   1
    68    27    65   1
    69    27    66   1
    70    28    67   1
    71    28    68   1
    72    29    69   1
    73    29    70   1
    74    30    71   1
    75    30    72   1
    76    31    73   1
    77    31    74   1
    78    32    75   1
    79    32    76   1
    80    33    77   1
    81    33    78   1
    82    34    79   1
    83    34    80   1
    84    35    81   1
    85    35    82   1
    86    36    83   1
    87    36    84   1
@<TRIPOS>SUBSTRUCTURE
     1  E12      1

