@<TRIPOS>MOLECULE
1h23_ligand_014
    84    87
SMALL
GAST_HUCK
****
This file was generated by PARSER (from files_GN.cpp)

@<TRIPOS>ATOM
      1 C1          4.1861   56.7505   77.7190 C.2         1 E12       0.1811
      2 N2          3.6004   55.7707   77.0359 N.am        1 E12      -0.2230
      3 O7          4.7130   56.4965   78.7931 O.2         1 E12      -0.4310
      4 C4          3.0984   57.1987   75.2390 C.2         1 E12       0.0225
      5 C5          3.6617   58.2244   75.9821 C.2         1 E12      -0.0779
      6 C14         1.2717   55.2646   74.1598 C.3         1 E12      -0.0310
      7 N17         3.6849   58.0117   73.0226 N.4         1 E12       0.2346
      8 C24         3.3378   58.5937   71.6997 C.3         1 E12      -0.0329
      9 C6          4.1930   58.0123   77.2044 C.2         1 E12      -0.0278
     10 C9          2.2605   54.8558   75.2801 C.3         1 E12       0.0189
     11 C10         2.5879   57.4647   73.8766 C.3         1 E12      -0.0032
     12 C13         1.9755   56.2126   73.1632 C.3         1 E12      -0.0041
     13 C63         3.3797   60.1458   71.7438 C.3         1 E12      -0.0126
     14 C29         2.4622   68.3912   60.8182 C.2         1 E12       0.1811
     15 C3          2.9986   55.9782   75.8425 C.2         1 E12       0.0883
     16 N30         3.7732   68.1870   60.9397 N.am        1 E12      -0.2230
     17 C31         4.4217   68.3353   62.1185 C.2         1 E12       0.0883
     18 C32         3.7326   68.7594   63.2142 C.2         1 E12       0.0225
     19 C33         2.3636   68.9371   63.0835 C.2         1 E12      -0.0779
     20 C34         1.7349   68.7576   61.9099 C.2         1 E12      -0.0278
     21 O35         1.9385   68.2662   59.7208 O.2         1 E12      -0.4310
     22 C36         5.8596   68.0833   62.1117 C.3         1 E12       0.0189
     23 C37         4.3922   69.0615   64.4979 C.3         1 E12      -0.0032
     24 C38         5.9507   69.1252   64.4141 C.3         1 E12      -0.0041
     25 C39         6.4978   67.9955   63.5203 C.3         1 E12      -0.0310
     26 N40         3.9914   68.0767   65.5498 N.4         1 E12       0.2346
     27 C41         3.0563   68.5649   66.6062 C.3         1 E12      -0.0329
     28 C64         4.8203   60.7113   71.9777 C.3         1 E12      -0.0483
     29 C65         5.3627   61.5903   70.8102 C.3         1 E12      -0.0529
     30 C66         5.2259   63.1151   71.1044 C.3         1 E12      -0.0531
     31 C67         5.4368   64.0167   69.8507 C.3         1 E12      -0.0531
     32 C68         5.0045   65.5040   70.0545 C.3         1 E12      -0.0531
     33 C69         3.4850   65.7571   70.2734 C.3         1 E12      -0.0531
     34 C70         2.5354   65.4584   69.0722 C.3         1 E12      -0.0529
     35 C71         2.7795   66.2207   67.7353 C.3         1 E12      -0.0483
     36 C72         3.0876   67.7321   67.9184 C.3         1 E12      -0.0126
     37 H1          3.6357   54.8640   77.3860 H           1 E12       0.2526
     38 H2          3.6628   59.1525   75.6287 H           1 E12       0.0600
     39 H3          0.9125   54.3730   73.6392 H           1 E12       0.0298
     40 H4          0.4070   55.7729   74.5989 H           1 E12       0.0298
     41 H5          4.3639   57.2642   72.8793 H           1 E12       0.2022
     42 H6          4.1675   58.7403   73.5498 H           1 E12       0.2022
     43 H7          2.3574   58.2581   71.3516 H           1 E12       0.0814
     44 H8          4.0765   58.2401   70.9728 H           1 E12       0.0814
     45 H9          4.5783   58.7670   77.7247 H           1 E12       0.0298
     46 H10         1.6834   54.3620   76.0692 H           1 E12       0.0511
     47 H11         2.9792   54.1318   74.8883 H           1 E12       0.0511
     48 H12         1.7977   58.2181   73.9791 H           1 E12       0.0913
     49 H13         2.7645   55.6425   72.6602 H           1 E12       0.0333
     50 H14         1.2534   56.5265   72.4050 H           1 E12       0.0333
     51 H15         2.7208   60.4918   72.5489 H           1 E12       0.0317
     52 H16         2.9690   60.5279   70.8004 H           1 E12       0.0317
     53 H17         4.2940   67.9383   60.1558 H           1 E12       0.2526
     54 H18         1.8250   69.2195   63.8687 H           1 E12       0.0600
     55 H19         0.7509   68.8905   61.8419 H           1 E12       0.0298
     56 H20         6.3417   68.8905   61.5502 H           1 E12       0.0511
     57 H21         6.0634   67.1439   61.5901 H           1 E12       0.0511
     58 H22         4.0885   70.0716   64.7904 H           1 E12       0.0913
     59 H23         6.3943   69.0457   65.4080 H           1 E12       0.0333
     60 H24         6.2608   70.0873   63.9933 H           1 E12       0.0333
     61 H25         7.5831   68.0765   63.4339 H           1 E12       0.0298
     62 H26         6.2603   67.0260   63.9701 H           1 E12       0.0298
     63 H27         3.5520   67.2713   65.0983 H           1 E12       0.2022
     64 H28         4.8336   67.7407   66.0248 H           1 E12       0.2022
     65 H29         3.3125   69.5922   66.8867 H           1 E12       0.0814
     66 H30         2.0369   68.5705   66.2046 H           1 E12       0.0814
     67 H31         5.5293   59.8923   72.1181 H           1 E12       0.0267
     68 H32         4.8429   61.2896   72.9081 H           1 E12       0.0267
     69 H33         4.8387   61.3283   69.8791 H           1 E12       0.0265
     70 H34         6.4324   61.3675   70.6726 H           1 E12       0.0265
     71 H35         5.9805   63.3939   71.8541 H           1 E12       0.0265
     72 H36         4.2233   63.3001   71.5176 H           1 E12       0.0265
     73 H37         4.9002   63.6036   68.9900 H           1 E12       0.0265
     74 H38         6.5047   64.0273   69.6047 H           1 E12       0.0265
     75 H39         5.3458   66.1052   69.1946 H           1 E12       0.0265
     76 H40         5.5227   65.8869   70.9406 H           1 E12       0.0265
     77 H41         3.3417   66.8067   70.5681 H           1 E12       0.0265
     78 H42         3.1370   65.1383   71.1076 H           1 E12       0.0265
     79 H43         1.5108   65.6954   69.3939 H           1 E12       0.0265
     80 H44         2.5529   64.3859   68.8523 H           1 E12       0.0265
     81 H45         1.8816   66.1080   67.1100 H           1 E12       0.0267
     82 H46         3.6073   65.7480   67.1924 H           1 E12       0.0267
     83 H47         4.0871   67.8249   68.3675 H           1 E12       0.0317
     84 H48         2.3433   68.1644   68.6035 H           1 E12       0.0317
@<TRIPOS>BOND
     1     1     9   1
     2     1     3   2
     3     1     2  am
     4     2    15   1
     5    15    10   1
     6    15     4   2
     7     4    11   1
     8     4     5   1
     9     5     9   2
    10    11     7   1
    11    11    12   1
    12    12     6   1
    13     6    10   1
    14     7     8   1
    15     8    13   1
    16    13    28   1
    17    28    29   1
    18    29    30   1
    19    30    31   1
    20    31    32   1
    21    32    33   1
    22    33    34   1
    23    34    35   1
    24    35    36   1
    25    36    27   1
    26    27    26   1
    27    26    23   1
    28    23    24   1
    29    23    18   1
    30    18    19   1
    31    18    17   2
    32    17    22   1
    33    17    16   1
    34    16    14  am
    35    14    20   1
    36    14    21   2
    37    20    19   2
    38    22    25   1
    39    25    24   1
    40     2    37   1
    41     5    38   1
    42     6    39   1
    43     6    40   1
    44     7    41   1
    45     7    42   1
    46     8    43   1
    47     8    44   1
    48     9    45   1
    49    10    46   1
    50    10    47   1
    51    11    48   1
    52    12    49   1
    53    12    50   1
    54    13    51   1
    55    13    52   1
    56    16    53   1
    57    19    54   1
    58    20    55   1
    59    22    56   1
    60    22    57   1
    61    23    58   1
    62    24    59   1
    63    24    60   1
    64    25    61   1
    65    25    62   1
    66    26    63   1
    67    26    64   1
    68    27    65   1
    69    27    66   1
    70    28    67   1
    71    28    68   1
    72    29    69   1
    73    29    70   1
    74    30    71   1
    75    30    72   1
    76    31    73   1
    77    31    74   1
    78    32    75   1
    79    32    76   1
    80    33    77   1
    81    33    78   1
    82    34    79   1
    83    34    80   1
    84    35    81   1
    85    35    82   1
    86    36    83   1
    87    36    84   1
@<TRIPOS>SUBSTRUCTURE
     1  E12      1

