@<TRIPOS>MOLECULE
1h23_ligand_073
    84    87
SMALL
GAST_HUCK
****
This file was generated by PARSER (from files_GN.cpp)

@<TRIPOS>ATOM
      1 C1          2.2713   68.9355   65.7423 C.2         1 E12       0.1811
      2 N2          1.6704   68.8337   64.5611 N.am        1 E12      -0.2230
      3 O7          1.6015   68.9061   66.7656 O.2         1 E12      -0.4310
      4 C4          3.7159   68.9433   63.4060 C.2         1 E12       0.0225
      5 C5          4.3242   69.1532   64.6341 C.2         1 E12      -0.0779
      6 C14         2.3487   68.2236   60.9559 C.3         1 E12      -0.0310
      7 N17         5.5945   67.8758   62.2148 N.4         1 E12       0.2346
      8 C24         5.2759   66.4287   62.2650 C.3         1 E12      -0.0329
      9 C6          3.6288   69.0898   65.7894 C.2         1 E12      -0.0278
     10 C9          1.5567   68.7575   62.1716 C.3         1 E12       0.0189
     11 C10         4.5324   68.9275   62.1817 C.3         1 E12      -0.0032
     12 C13         3.7172   68.9423   60.8436 C.3         1 E12      -0.0041
     13 C63         4.7612   65.9408   63.6497 C.3         1 E12      -0.0126
     14 C29         0.1553   65.8547   71.4922 C.2         1 E12       0.1811
     15 C3          2.3525   68.8569   63.3901 C.2         1 E12       0.0883
     16 N30        -0.0135   65.3724   72.7222 N.am        1 E12      -0.2230
     17 C31        -0.4018   64.1008   72.9671 C.2         1 E12       0.0883
     18 C32        -0.6303   63.2663   71.9127 C.2         1 E12       0.0225
     19 C33        -0.4950   63.7778   70.6298 C.2         1 E12      -0.0779
     20 C34        -0.1015   65.0510   70.4185 C.2         1 E12      -0.0278
     21 O35         0.5618   66.9968   71.3292 O.2         1 E12      -0.4310
     22 C36        -0.6017   63.7308   74.3658 C.3         1 E12       0.0189
     23 C37        -0.9814   61.8410   72.0957 C.3         1 E12      -0.0032
     24 C38        -1.7806   61.6301   73.4213 C.3         1 E12      -0.0041
     25 C39        -1.0163   62.2530   74.6247 C.3         1 E12      -0.0310
     26 N40         0.1665   60.8724   72.0915 N.4         1 E12       0.2346
     27 C41         1.4001   61.1904   71.3224 C.3         1 E12      -0.0329
     28 C64         4.3911   64.4275   63.6304 C.3         1 E12      -0.0483
     29 C65         4.4834   63.7219   65.0162 C.3         1 E12      -0.0529
     30 C66         3.1353   63.4710   65.7547 C.3         1 E12      -0.0531
     31 C67         3.2991   62.6320   67.0684 C.3         1 E12      -0.0531
     32 C68         3.7290   63.4536   68.3163 C.3         1 E12      -0.0531
     33 C69         4.0862   62.6778   69.6443 C.3         1 E12      -0.0531
     34 C70         4.0392   61.1134   69.6659 C.3         1 E12      -0.0529
     35 C71         3.9110   60.5025   71.1103 C.3         1 E12      -0.0483
     36 C72         2.4649   60.0704   71.5095 C.3         1 E12      -0.0126
     37 H1          0.7008   68.7698   64.5368 H           1 E12       0.2526
     38 H2          5.3035   69.3143   64.6842 H           1 E12       0.0600
     39 H3          2.4905   67.1466   61.0702 H           1 E12       0.0298
     40 H4          1.7715   68.3814   60.0384 H           1 E12       0.0298
     41 H5          6.2090   68.0849   63.0060 H           1 E12       0.2022
     42 H6          6.1506   68.0114   61.3687 H           1 E12       0.2022
     43 H7          6.2223   65.9223   62.0548 H           1 E12       0.0814
     44 H8          4.5935   66.1473   61.4622 H           1 E12       0.0814
     45 H9          4.0937   69.2140   66.6663 H           1 E12       0.0298
     46 H10         1.1760   69.7558   61.9420 H           1 E12       0.0511
     47 H11         0.6944   68.0911   62.3275 H           1 E12       0.0511
     48 H12         5.0859   69.8739   62.1806 H           1 E12       0.0913
     49 H13         4.3001   68.4915   60.0396 H           1 E12       0.0333
     50 H14         3.5170   69.9789   60.5644 H           1 E12       0.0333
     51 H15         3.8753   66.5306   63.9211 H           1 E12       0.0317
     52 H16         5.5631   66.1105   64.3855 H           1 E12       0.0317
     53 H17         0.1616   65.9563   73.4701 H           1 E12       0.2526
     54 H18        -0.6828   63.2014   69.8356 H           1 E12       0.0600
     55 H19        -0.0220   65.4037   69.4873 H           1 E12       0.0298
     56 H20        -1.3802   64.3831   74.7777 H           1 E12       0.0511
     57 H21         0.3323   63.9212   74.9032 H           1 E12       0.0511
     58 H22        -1.6654   61.5462   71.2836 H           1 E12       0.0913
     59 H23        -1.9405   60.5542   73.5893 H           1 E12       0.0333
     60 H24        -2.7675   62.1021   73.3328 H           1 E12       0.0333
     61 H25        -1.6562   62.1961   75.5154 H           1 E12       0.0298
     62 H26        -0.1160   61.6517   74.8156 H           1 E12       0.0298
     63 H27         0.4675   60.7417   73.0670 H           1 E12       0.2022
     64 H28        -0.2068   59.9767   71.7529 H           1 E12       0.2022
     65 H29         1.1566   61.2837   70.2538 H           1 E12       0.0814
     66 H30         1.7943   62.1417   71.7154 H           1 E12       0.0814
     67 H31         5.0866   63.9059   62.9540 H           1 E12       0.0267
     68 H32         3.3788   64.3069   63.2199 H           1 E12       0.0267
     69 H33         5.1462   64.2932   65.6755 H           1 E12       0.0265
     70 H34         4.9476   62.7418   64.8565 H           1 E12       0.0265
     71 H35         2.4746   62.9168   65.0856 H           1 E12       0.0265
     72 H36         2.6571   64.4309   65.9804 H           1 E12       0.0265
     73 H37         4.0309   61.8371   66.9096 H           1 E12       0.0265
     74 H38         2.3416   62.1541   67.3023 H           1 E12       0.0265
     75 H39         2.9146   64.1610   68.5400 H           1 E12       0.0265
     76 H40         4.5985   64.0688   68.0344 H           1 E12       0.0265
     77 H41         3.4241   63.0721   70.4255 H           1 E12       0.0265
     78 H42         5.1014   62.9770   69.9345 H           1 E12       0.0265
     79 H43         4.9838   60.7549   69.2315 H           1 E12       0.0265
     80 H44         3.2150   60.7471   69.0317 H           1 E12       0.0265
     81 H45         4.2988   61.2068   71.8693 H           1 E12       0.0267
     82 H46         4.5302   59.5949   71.1475 H           1 E12       0.0267
     83 H47         2.4743   59.7571   72.5732 H           1 E12       0.0317
     84 H48         2.1663   59.2053   70.8945 H           1 E12       0.0317
@<TRIPOS>BOND
     1     1     9   1
     2     1     3   2
     3     1     2  am
     4     2    15   1
     5    15    10   1
     6    15     4   2
     7     4    11   1
     8     4     5   1
     9     5     9   2
    10    11     7   1
    11    11    12   1
    12    12     6   1
    13     6    10   1
    14     7     8   1
    15     8    13   1
    16    13    28   1
    17    28    29   1
    18    29    30   1
    19    30    31   1
    20    31    32   1
    21    32    33   1
    22    33    34   1
    23    34    35   1
    24    35    36   1
    25    36    27   1
    26    27    26   1
    27    26    23   1
    28    23    24   1
    29    23    18   1
    30    18    19   1
    31    18    17   2
    32    17    22   1
    33    17    16   1
    34    16    14  am
    35    14    20   1
    36    14    21   2
    37    20    19   2
    38    22    25   1
    39    25    24   1
    40     2    37   1
    41     5    38   1
    42     6    39   1
    43     6    40   1
    44     7    41   1
    45     7    42   1
    46     8    43   1
    47     8    44   1
    48     9    45   1
    49    10    46   1
    50    10    47   1
    51    11    48   1
    52    12    49   1
    53    12    50   1
    54    13    51   1
    55    13    52   1
    56    16    53   1
    57    19    54   1
    58    20    55   1
    59    22    56   1
    60    22    57   1
    61    23    58   1
    62    24    59   1
    63    24    60   1
    64    25    61   1
    65    25    62   1
    66    26    63   1
    67    26    64   1
    68    27    65   1
    69    27    66   1
    70    28    67   1
    71    28    68   1
    72    29    69   1
    73    29    70   1
    74    30    71   1
    75    30    72   1
    76    31    73   1
    77    31    74   1
    78    32    75   1
    79    32    76   1
    80    33    77   1
    81    33    78   1
    82    34    79   1
    83    34    80   1
    84    35    81   1
    85    35    82   1
    86    36    83   1
    87    36    84   1
@<TRIPOS>SUBSTRUCTURE
     1  E12      1

