@<TRIPOS>MOLECULE
1h23_ligand_053
    84    87
SMALL
GAST_HUCK
****
This file was generated by PARSER (from files_GN.cpp)

@<TRIPOS>ATOM
      1 C1          2.5835   68.4307   60.6643 C.2         1 E12       0.1811
      2 N2          3.8817   68.2412   60.8885 N.am        1 E12      -0.2230
      3 O7          2.1646   68.4062   59.5178 O.2         1 E12      -0.4310
      4 C4          3.5775   68.3053   63.2128 C.2         1 E12       0.0225
      5 C5          2.2407   68.5785   62.9696 C.2         1 E12      -0.0779
      6 C14         6.4254   68.4165   63.6291 C.3         1 E12      -0.0310
      7 N17         3.2338   67.2497   65.4110 N.4         1 E12       0.2346
      8 C24         2.6106   67.7859   66.6464 C.3         1 E12      -0.0329
      9 C6          1.7418   68.6253   61.7183 C.2         1 E12      -0.0278
     10 C9          5.8554   68.0849   62.2290 C.3         1 E12       0.0189
     11 C10         4.0693   68.1944   64.6008 C.3         1 E12      -0.0032
     12 C13         5.5597   67.7407   64.7113 C.3         1 E12      -0.0041
     13 C63         3.6056   67.9808   67.8309 C.3         1 E12      -0.0126
     14 C29         4.7407   63.0827   69.6427 C.2         1 E12       0.1811
     15 C3          4.4061   68.2171   62.1340 C.2         1 E12       0.0883
     16 N30         4.1418   61.9417   69.3014 N.am        1 E12      -0.2230
     17 C31         3.9747   60.9192   70.1696 C.2         1 E12       0.0883
     18 C32         4.4262   61.0511   71.4490 C.2         1 E12       0.0225
     19 C33         5.0621   62.2337   71.7929 C.2         1 E12      -0.0779
     20 C34         5.1990   63.2445   70.9118 C.2         1 E12      -0.0278
     21 O35         4.9422   63.9270   68.7822 O.2         1 E12      -0.4310
     22 C36         3.3904   59.6946   69.6315 C.3         1 E12       0.0189
     23 C37         4.2674   59.9995   72.4628 C.3         1 E12      -0.0032
     24 C38         3.8559   58.5970   71.9008 C.3         1 E12      -0.0041
     25 C39         2.9090   58.6657   70.6843 C.3         1 E12      -0.0310
     26 N40         3.4946   60.4213   73.6764 N.4         1 E12       0.2346
     27 C41         2.3816   61.4119   73.6861 C.3         1 E12      -0.0329
     28 C64         3.6409   66.8423   68.9004 C.3         1 E12      -0.0483
     29 C65         2.9595   67.1774   70.2546 C.3         1 E12      -0.0529
     30 C66         1.4097   67.1231   70.2787 C.3         1 E12      -0.0531
     31 C67         0.7593   65.7961   69.8145 C.3         1 E12      -0.0531
     32 C68         0.5783   64.7468   70.9391 C.3         1 E12      -0.0531
     33 C69        -0.0591   63.4229   70.4398 C.3         1 E12      -0.0531
     34 C70        -0.3861   62.4318   71.6050 C.3         1 E12      -0.0529
     35 C71         0.5999   61.2357   71.7710 C.3         1 E12      -0.0483
     36 C72         0.9943   60.8698   73.2323 C.3         1 E12      -0.0126
     37 H1          4.4780   68.1131   60.1321 H           1 E12       0.2526
     38 H2          1.6203   68.7507   63.7269 H           1 E12       0.0600
     39 H3          7.4582   68.0670   63.6991 H           1 E12       0.0298
     40 H4          6.4198   69.5007   63.7825 H           1 E12       0.0298
     41 H5          3.7935   66.4368   65.6731 H           1 E12       0.2022
     42 H6          2.4757   66.9104   64.8162 H           1 E12       0.2022
     43 H7          1.8132   67.1013   66.9398 H           1 E12       0.0814
     44 H8          2.1317   68.7411   66.4134 H           1 E12       0.0814
     45 H9          0.7751   68.8108   61.5681 H           1 E12       0.0298
     46 H10         6.3329   68.7603   61.5125 H           1 E12       0.0511
     47 H11         6.1270   67.0600   61.9581 H           1 E12       0.0511
     48 H12         4.0140   69.2084   65.0148 H           1 E12       0.0913
     49 H13         5.6350   66.6571   64.5843 H           1 E12       0.0333
     50 H14         5.9654   67.9922   65.6937 H           1 E12       0.0333
     51 H15         3.3813   68.9299   68.3220 H           1 E12       0.0317
     52 H16         4.6086   68.0933   67.4225 H           1 E12       0.0317
     53 H17         3.8302   61.8344   68.3900 H           1 E12       0.2526
     54 H18         5.4323   62.3487   72.7093 H           1 E12       0.0600
     55 H19         5.6365   64.0944   71.1915 H           1 E12       0.0298
     56 H20         4.1387   59.2209   68.9870 H           1 E12       0.0511
     57 H21         2.5342   59.9548   69.0022 H           1 E12       0.0511
     58 H22         5.2721   59.8208   72.8645 H           1 E12       0.0913
     59 H23         3.3937   57.9911   72.6833 H           1 E12       0.0333
     60 H24         4.7591   58.0629   71.5789 H           1 E12       0.0333
     61 H25         2.8440   57.6796   70.2160 H           1 E12       0.0298
     62 H26         1.9092   58.9212   71.0249 H           1 E12       0.0298
     63 H27         3.1363   59.5727   74.1208 H           1 E12       0.2022
     64 H28         4.1947   60.8107   74.3151 H           1 E12       0.2022
     65 H29         2.2902   61.7197   74.7319 H           1 E12       0.0814
     66 H30         2.6566   62.3124   73.1302 H           1 E12       0.0814
     67 H31         4.6886   66.6252   69.1313 H           1 E12       0.0267
     68 H32         3.2153   65.9252   68.4921 H           1 E12       0.0267
     69 H33         3.2557   68.1919   70.5204 H           1 E12       0.0265
     70 H34         3.3621   66.5190   71.0276 H           1 E12       0.0265
     71 H35         1.0206   67.9321   69.6614 H           1 E12       0.0265
     72 H36         1.0869   67.3195   71.2991 H           1 E12       0.0265
     73 H37         1.3449   65.3702   69.0025 H           1 E12       0.0265
     74 H38        -0.2373   66.0233   69.4265 H           1 E12       0.0265
     75 H39        -0.0775   65.1834   71.7008 H           1 E12       0.0265
     76 H40         1.5380   64.5286   71.4101 H           1 E12       0.0265
     77 H41         0.6010   62.9609   69.6984 H           1 E12       0.0265
     78 H42        -0.9868   63.6697   69.9138 H           1 E12       0.0265
     79 H43        -1.3858   62.0246   71.4179 H           1 E12       0.0265
     80 H44        -0.4590   62.9776   72.5498 H           1 E12       0.0265
     81 H45         1.5110   61.4222   71.2072 H           1 E12       0.0267
     82 H46         0.1260   60.3611   71.3218 H           1 E12       0.0267
     83 H47         1.0039   59.7837   73.3415 H           1 E12       0.0317
     84 H48         0.2210   61.2376   73.9137 H           1 E12       0.0317
@<TRIPOS>BOND
     1     1     9   1
     2     1     3   2
     3     1     2  am
     4     2    15   1
     5    15    10   1
     6    15     4   2
     7     4    11   1
     8     4     5   1
     9     5     9   2
    10    11     7   1
    11    11    12   1
    12    12     6   1
    13     6    10   1
    14     7     8   1
    15     8    13   1
    16    13    28   1
    17    28    29   1
    18    29    30   1
    19    30    31   1
    20    31    32   1
    21    32    33   1
    22    33    34   1
    23    34    35   1
    24    35    36   1
    25    36    27   1
    26    27    26   1
    27    26    23   1
    28    23    24   1
    29    23    18   1
    30    18    19   1
    31    18    17   2
    32    17    22   1
    33    17    16   1
    34    16    14  am
    35    14    20   1
    36    14    21   2
    37    20    19   2
    38    22    25   1
    39    25    24   1
    40     2    37   1
    41     5    38   1
    42     6    39   1
    43     6    40   1
    44     7    41   1
    45     7    42   1
    46     8    43   1
    47     8    44   1
    48     9    45   1
    49    10    46   1
    50    10    47   1
    51    11    48   1
    52    12    49   1
    53    12    50   1
    54    13    51   1
    55    13    52   1
    56    16    53   1
    57    19    54   1
    58    20    55   1
    59    22    56   1
    60    22    57   1
    61    23    58   1
    62    24    59   1
    63    24    60   1
    64    25    61   1
    65    25    62   1
    66    26    63   1
    67    26    64   1
    68    27    65   1
    69    27    66   1
    70    28    67   1
    71    28    68   1
    72    29    69   1
    73    29    70   1
    74    30    71   1
    75    30    72   1
    76    31    73   1
    77    31    74   1
    78    32    75   1
    79    32    76   1
    80    33    77   1
    81    33    78   1
    82    34    79   1
    83    34    80   1
    84    35    81   1
    85    35    82   1
    86    36    83   1
    87    36    84   1
@<TRIPOS>SUBSTRUCTURE
     1  E12      1

