@<TRIPOS>MOLECULE
1h23_ligand_031
    84    87
SMALL
GAST_HUCK
****
This file was generated by PARSER (from files_GN.cpp)

@<TRIPOS>ATOM
      1 C1         -0.3172   64.8461   70.4860 C.2         1 E12       0.1811
      2 N2         -0.2268   65.3232   71.7291 N.am        1 E12      -0.2230
      3 O7         -0.0695   65.5766   69.5395 O.2         1 E12      -0.4310
      4 C4         -0.8036   63.2440   72.6564 C.2         1 E12       0.0225
      5 C5         -1.0106   62.7947   71.3633 C.2         1 E12      -0.0779
      6 C14        -0.8831   64.3804   75.3252 C.3         1 E12      -0.0310
      7 N17        -0.3332   60.9904   73.5873 N.4         1 E12       0.2346
      8 C24         1.0508   60.9492   73.0462 C.3         1 E12      -0.0329
      9 C6         -0.7333   63.5636   70.2910 C.2         1 E12      -0.0278
     10 C9         -0.3584   65.2103   74.1248 C.3         1 E12       0.0189
     11 C10        -0.9572   62.3221   73.8028 C.3         1 E12      -0.0032
     12 C13        -0.4799   62.9005   75.1712 C.3         1 E12      -0.0041
     13 C63         1.1213   60.1255   71.7289 C.3         1 E12      -0.0126
     14 C29         2.5808   68.4946   60.7959 C.2         1 E12       0.1811
     15 C3         -0.4847   64.5593   72.8228 C.2         1 E12       0.0883
     16 N30         3.8826   68.3048   61.0024 N.am        1 E12      -0.2230
     17 C31         4.4415   68.3989   62.2260 C.2         1 E12       0.0883
     18 C32         3.6484   68.6381   63.3133 C.2         1 E12       0.0225
     19 C33         2.3198   68.9434   63.0765 C.2         1 E12      -0.0779
     20 C34         1.7800   68.8445   61.8445 C.2         1 E12      -0.0278
     21 O35         2.1217   68.3620   59.6702 O.2         1 E12      -0.4310
     22 C36         5.8816   68.1787   62.3018 C.3         1 E12       0.0189
     23 C37         4.1824   68.6354   64.6877 C.3         1 E12      -0.0032
     24 C38         5.6097   68.0177   64.8106 C.3         1 E12      -0.0041
     25 C39         6.5110   68.5349   63.6714 C.3         1 E12      -0.0310
     26 N40         3.2827   68.0495   65.7218 N.4         1 E12       0.2346
     27 C41         2.7923   66.6396   65.6069 C.3         1 E12      -0.0329
     28 C64         2.4925   60.2131   70.9795 C.3         1 E12      -0.0483
     29 C65         2.6627   61.5262   70.1515 C.3         1 E12      -0.0529
     30 C66         4.1220   61.7844   69.6500 C.3         1 E12      -0.0531
     31 C67         5.0222   62.5682   70.6720 C.3         1 E12      -0.0531
     32 C68         4.9875   64.1346   70.5658 C.3         1 E12      -0.0531
     33 C69         5.4227   64.7229   69.1890 C.3         1 E12      -0.0531
     34 C70         4.7156   66.0756   68.8213 C.3         1 E12      -0.0529
     35 C71         3.3582   65.8998   68.0618 C.3         1 E12      -0.0483
     36 C72         3.5368   65.6340   66.5273 C.3         1 E12      -0.0126
     37 H1          0.0342   66.2533   71.8543 H           1 E12       0.2526
     38 H2         -1.3860   61.8874   71.2121 H           1 E12       0.0600
     39 H3         -0.4736   64.7777   76.2572 H           1 E12       0.0298
     40 H4         -1.9701   64.4521   75.3814 H           1 E12       0.0298
     41 H5         -0.9334   60.4534   72.9620 H           1 E12       0.2022
     42 H6         -0.3253   60.4942   74.4770 H           1 E12       0.2022
     43 H7          1.7060   60.4834   73.7822 H           1 E12       0.0814
     44 H8          1.4400   61.9494   72.8514 H           1 E12       0.0814
     45 H9         -0.8882   63.2108   69.3765 H           1 E12       0.0298
     46 H10        -0.9042   66.1591   74.1089 H           1 E12       0.0511
     47 H11         0.6955   65.4375   74.2946 H           1 E12       0.0511
     48 H12        -2.0304   62.1372   73.8885 H           1 E12       0.0913
     49 H13         0.6082   62.8370   75.2530 H           1 E12       0.0333
     50 H14        -0.9087   62.3126   75.9864 H           1 E12       0.0333
     51 H15         0.3269   60.4535   71.0392 H           1 E12       0.0317
     52 H16         0.9245   59.0696   71.9619 H           1 E12       0.0317
     53 H17         4.4502   68.0969   60.2430 H           1 E12       0.2526
     54 H18         1.7409   69.2449   63.8177 H           1 E12       0.0600
     55 H19         0.8175   69.0735   61.6989 H           1 E12       0.0298
     56 H20         6.3830   68.7890   61.5388 H           1 E12       0.0511
     57 H21         6.0848   67.1270   62.0747 H           1 E12       0.0511
     58 H22         4.2720   69.6948   64.9612 H           1 E12       0.0913
     59 H23         5.5541   66.9275   64.7477 H           1 E12       0.0333
     60 H24         6.0431   68.2805   65.7755 H           1 E12       0.0333
     61 H25         6.6240   69.6235   63.7567 H           1 E12       0.0298
     62 H26         7.5059   68.0859   63.7556 H           1 E12       0.0298
     63 H27         3.7577   68.1497   66.6327 H           1 E12       0.2022
     64 H28         2.4448   68.6432   65.7613 H           1 E12       0.2022
     65 H29         1.7325   66.6361   65.8892 H           1 E12       0.0814
     66 H30         2.8582   66.2880   64.5696 H           1 E12       0.0814
     67 H31         2.5585   59.3667   70.2879 H           1 E12       0.0267
     68 H32         3.3070   60.1091   71.7097 H           1 E12       0.0267
     69 H33         2.3163   62.3931   70.7292 H           1 E12       0.0265
     70 H34         2.0226   61.4413   69.2663 H           1 E12       0.0265
     71 H35         4.0821   62.3723   68.7246 H           1 E12       0.0265
     72 H36         4.6043   60.8188   69.4343 H           1 E12       0.0265
     73 H37         6.0734   62.2217   70.5837 H           1 E12       0.0265
     74 H38         4.7198   62.3197   71.7076 H           1 E12       0.0265
     75 H39         5.6519   64.5460   71.3353 H           1 E12       0.0265
     76 H40         3.9754   64.4588   70.8369 H           1 E12       0.0265
     77 H41         5.2058   63.9947   68.3958 H           1 E12       0.0265
     78 H42         6.5157   64.9034   69.2223 H           1 E12       0.0265
     79 H43         5.4089   66.6625   68.1853 H           1 E12       0.0265
     80 H44         4.5518   66.6728   69.7429 H           1 E12       0.0265
     81 H45         2.7571   66.8033   68.2359 H           1 E12       0.0267
     82 H46         2.8148   65.0571   68.5018 H           1 E12       0.0267
     83 H47         3.1468   64.6345   66.3098 H           1 E12       0.0317
     84 H48         4.6016   65.6230   66.2471 H           1 E12       0.0317
@<TRIPOS>BOND
     1     1     9   1
     2     1     3   2
     3     1     2  am
     4     2    15   1
     5    15    10   1
     6    15     4   2
     7     4    11   1
     8     4     5   1
     9     5     9   2
    10    11     7   1
    11    11    12   1
    12    12     6   1
    13     6    10   1
    14     7     8   1
    15     8    13   1
    16    13    28   1
    17    28    29   1
    18    29    30   1
    19    30    31   1
    20    31    32   1
    21    32    33   1
    22    33    34   1
    23    34    35   1
    24    35    36   1
    25    36    27   1
    26    27    26   1
    27    26    23   1
    28    23    24   1
    29    23    18   1
    30    18    19   1
    31    18    17   2
    32    17    22   1
    33    17    16   1
    34    16    14  am
    35    14    20   1
    36    14    21   2
    37    20    19   2
    38    22    25   1
    39    25    24   1
    40     2    37   1
    41     5    38   1
    42     6    39   1
    43     6    40   1
    44     7    41   1
    45     7    42   1
    46     8    43   1
    47     8    44   1
    48     9    45   1
    49    10    46   1
    50    10    47   1
    51    11    48   1
    52    12    49   1
    53    12    50   1
    54    13    51   1
    55    13    52   1
    56    16    53   1
    57    19    54   1
    58    20    55   1
    59    22    56   1
    60    22    57   1
    61    23    58   1
    62    24    59   1
    63    24    60   1
    64    25    61   1
    65    25    62   1
    66    26    63   1
    67    26    64   1
    68    27    65   1
    69    27    66   1
    70    28    67   1
    71    28    68   1
    72    29    69   1
    73    29    70   1
    74    30    71   1
    75    30    72   1
    76    31    73   1
    77    31    74   1
    78    32    75   1
    79    32    76   1
    80    33    77   1
    81    33    78   1
    82    34    79   1
    83    34    80   1
    84    35    81   1
    85    35    82   1
    86    36    83   1
    87    36    84   1
@<TRIPOS>SUBSTRUCTURE
     1  E12      1

