@<TRIPOS>MOLECULE
1h23_ligand_087
    84    87
SMALL
GAST_HUCK
****
This file was generated by PARSER (from files_GN.cpp)

@<TRIPOS>ATOM
      1 C1         -0.6598   60.4912   74.5621 C.2         1 E12       0.1811
      2 N2          0.4127   60.6742   75.3317 N.am        1 E12      -0.2230
      3 O7         -1.5599   61.3161   74.6014 O.2         1 E12      -0.4310
      4 C4          1.4373   58.7321   74.5131 C.2         1 E12       0.0225
      5 C5          0.2897   58.5119   73.7671 C.2         1 E12      -0.0779
      6 C14         3.4970   58.8911   76.5199 C.3         1 E12      -0.0310
      7 N17         2.9548   57.5277   72.9592 N.4         1 E12       0.2346
      8 C24         3.2317   58.6687   72.0412 C.3         1 E12      -0.0329
      9 C6         -0.7391   59.3841   73.7772 C.2         1 E12      -0.0278
     10 C9          2.5371   60.0849   76.2843 C.3         1 E12       0.0189
     11 C10         2.5957   57.8217   74.3772 C.3         1 E12      -0.0032
     12 C13         3.8735   58.2556   75.1645 C.3         1 E12      -0.0041
     13 C63         3.2862   58.1731   70.5769 C.3         1 E12      -0.0126
     14 C29         0.7299   69.0457   63.8596 C.2         1 E12       0.1811
     15 C3          1.4481   59.8056   75.3541 C.2         1 E12       0.0883
     16 N30        -0.5170   69.0362   64.3242 N.am        1 E12      -0.2230
     17 C31        -0.8323   68.6025   65.5693 C.2         1 E12       0.0883
     18 C32         0.1692   68.2196   66.4117 C.2         1 E12       0.0225
     19 C33         1.4559   68.1702   65.8992 C.2         1 E12      -0.0779
     20 C34         1.7416   68.5954   64.6522 C.2         1 E12      -0.0278
     21 O35         0.9515   69.4474   62.7249 O.2         1 E12      -0.4310
     22 C36        -2.2501   68.5611   65.9236 C.3         1 E12       0.0189
     23 C37        -0.0951   67.7545   67.7871 C.3         1 E12      -0.0032
     24 C38        -1.5347   68.0613   68.2942 C.3         1 E12      -0.0041
     25 C39        -2.5716   67.7444   67.1934 C.3         1 E12      -0.0310
     26 N40         0.8895   68.3193   68.7688 N.4         1 E12       0.2346
     27 C41         1.6794   67.3524   69.5775 C.3         1 E12      -0.0329
     28 C64         3.3383   59.3036   69.5124 C.3         1 E12      -0.0483
     29 C65         2.4800   60.5560   69.8846 C.3         1 E12      -0.0529
     30 C66         2.0318   61.4388   68.6908 C.3         1 E12      -0.0531
     31 C67         3.1436   62.2779   68.0157 C.3         1 E12      -0.0531
     32 C68         3.6383   63.4943   68.8583 C.3         1 E12      -0.0531
     33 C69         4.0712   64.7027   67.9887 C.3         1 E12      -0.0531
     34 C70         4.8412   65.8229   68.7394 C.3         1 E12      -0.0529
     35 C71         4.1331   66.5258   69.9316 C.3         1 E12      -0.0483
     36 C72         3.1850   67.7105   69.5687 C.3         1 E12      -0.0126
     37 H1          0.4539   61.4561   75.9111 H           1 E12       0.2526
     38 H2          0.2036   57.6970   73.2074 H           1 E12       0.0600
     39 H3          4.3966   59.2363   77.0344 H           1 E12       0.0298
     40 H4          3.0071   58.1441   77.1503 H           1 E12       0.0298
     41 H5          2.1849   56.9763   72.5658 H           1 E12       0.2022
     42 H6          3.7813   56.9243   72.9714 H           1 E12       0.2022
     43 H7          4.1977   59.1106   72.3038 H           1 E12       0.0814
     44 H8          2.4638   59.4422   72.1176 H           1 E12       0.0814
     45 H9         -1.5518   59.2099   73.2380 H           1 E12       0.0298
     46 H10         2.1194   60.3763   77.2540 H           1 E12       0.0511
     47 H11         3.1041   60.9376   75.8969 H           1 E12       0.0511
     48 H12         2.2746   56.8683   74.8123 H           1 E12       0.0913
     49 H13         4.4386   58.9939   74.5938 H           1 E12       0.0333
     50 H14         4.5213   57.3915   75.3300 H           1 E12       0.0333
     51 H15         2.4026   57.5595   70.3698 H           1 E12       0.0317
     52 H16         4.1610   57.5369   70.4492 H           1 E12       0.0317
     53 H17        -1.2280   69.3657   63.7504 H           1 E12       0.2526
     54 H18         2.1980   67.8076   66.4545 H           1 E12       0.0600
     55 H19         2.6789   68.5567   64.3162 H           1 E12       0.0298
     56 H20        -2.8181   68.1240   65.0954 H           1 E12       0.0511
     57 H21        -2.6002   69.5850   66.0645 H           1 E12       0.0511
     58 H22        -0.0174   66.6634   67.7352 H           1 E12       0.0913
     59 H23        -1.6163   69.1227   68.5601 H           1 E12       0.0333
     60 H24        -1.7449   67.4661   69.1886 H           1 E12       0.0333
     61 H25        -2.5375   66.6720   66.9700 H           1 E12       0.0298
     62 H26        -3.5738   67.9795   67.5569 H           1 E12       0.0298
     63 H27         1.5502   68.8965   68.2457 H           1 E12       0.2022
     64 H28         0.4115   68.9432   69.4192 H           1 E12       0.2022
     65 H29         1.2959   67.3823   70.6061 H           1 E12       0.0814
     66 H30         1.5619   66.3310   69.2107 H           1 E12       0.0814
     67 H31         2.9693   58.8852   68.5724 H           1 E12       0.0267
     68 H32         4.3774   59.6085   69.3514 H           1 E12       0.0267
     69 H33         3.0380   61.1680   70.6039 H           1 E12       0.0265
     70 H34         1.5756   60.2257   70.4074 H           1 E12       0.0265
     71 H35         1.2544   62.1246   69.0366 H           1 E12       0.0265
     72 H36         1.5705   60.8039   67.9318 H           1 E12       0.0265
     73 H37         2.7488   62.6487   67.0642 H           1 E12       0.0265
     74 H38         3.9997   61.6357   67.7784 H           1 E12       0.0265
     75 H39         4.4838   63.1690   69.4751 H           1 E12       0.0265
     76 H40         2.8355   63.8142   69.5332 H           1 E12       0.0265
     77 H41         3.1883   65.1229   67.4932 H           1 E12       0.0265
     78 H42         4.7271   64.3291   67.1956 H           1 E12       0.0265
     79 H43         5.1145   66.5847   68.0076 H           1 E12       0.0265
     80 H44         5.7721   65.3921   69.1073 H           1 E12       0.0265
     81 H45         4.9285   66.9379   70.5522 H           1 E12       0.0267
     82 H46         3.6076   65.7919   70.5415 H           1 E12       0.0267
     83 H47         3.4553   68.1072   68.5879 H           1 E12       0.0317
     84 H48         3.3296   68.5194   70.2948 H           1 E12       0.0317
@<TRIPOS>BOND
     1     1     9   1
     2     1     3   2
     3     1     2  am
     4     2    15   1
     5    15    10   1
     6    15     4   2
     7     4    11   1
     8     4     5   1
     9     5     9   2
    10    11     7   1
    11    11    12   1
    12    12     6   1
    13     6    10   1
    14     7     8   1
    15     8    13   1
    16    13    28   1
    17    28    29   1
    18    29    30   1
    19    30    31   1
    20    31    32   1
    21    32    33   1
    22    33    34   1
    23    34    35   1
    24    35    36   1
    25    36    27   1
    26    27    26   1
    27    26    23   1
    28    23    24   1
    29    23    18   1
    30    18    19   1
    31    18    17   2
    32    17    22   1
    33    17    16   1
    34    16    14  am
    35    14    20   1
    36    14    21   2
    37    20    19   2
    38    22    25   1
    39    25    24   1
    40     2    37   1
    41     5    38   1
    42     6    39   1
    43     6    40   1
    44     7    41   1
    45     7    42   1
    46     8    43   1
    47     8    44   1
    48     9    45   1
    49    10    46   1
    50    10    47   1
    51    11    48   1
    52    12    49   1
    53    12    50   1
    54    13    51   1
    55    13    52   1
    56    16    53   1
    57    19    54   1
    58    20    55   1
    59    22    56   1
    60    22    57   1
    61    23    58   1
    62    24    59   1
    63    24    60   1
    64    25    61   1
    65    25    62   1
    66    26    63   1
    67    26    64   1
    68    27    65   1
    69    27    66   1
    70    28    67   1
    71    28    68   1
    72    29    69   1
    73    29    70   1
    74    30    71   1
    75    30    72   1
    76    31    73   1
    77    31    74   1
    78    32    75   1
    79    32    76   1
    80    33    77   1
    81    33    78   1
    82    34    79   1
    83    34    80   1
    84    35    81   1
    85    35    82   1
    86    36    83   1
    87    36    84   1
@<TRIPOS>SUBSTRUCTURE
     1  E12      1

