@<TRIPOS>MOLECULE
1h23_ligand_064
    84    87
SMALL
GAST_HUCK
****
This file was generated by PARSER (from files_GN.cpp)

@<TRIPOS>ATOM
      1 C1          1.5813   69.4339   62.1816 C.2         1 E12       0.1811
      2 N2          2.8523   69.2688   61.8159 N.am        1 E12      -0.2230
      3 O7          0.7356   69.6556   61.3281 O.2         1 E12      -0.4310
      4 C4          3.5299   68.8807   64.0302 C.2         1 E12       0.0225
      5 C5          2.2219   69.1482   64.4094 C.2         1 E12      -0.0779
      6 C14         6.2995   68.9559   63.2527 C.3         1 E12      -0.0310
      7 N17         3.9478   67.2928   65.7998 N.4         1 E12       0.2346
      8 C24         4.7431   66.6707   66.8834 C.3         1 E12      -0.0329
      9 C6          1.2536   69.3912   63.5043 C.2         1 E12      -0.0278
     10 C9          5.1886   68.8949   62.1735 C.3         1 E12       0.0189
     11 C10         4.5213   68.4344   65.0341 C.3         1 E12      -0.0032
     12 C13         5.9154   68.0510   64.4411 C.3         1 E12      -0.0041
     13 C63         3.8977   65.5858   67.5998 C.3         1 E12      -0.0126
     14 C29        -1.2761   59.5861   73.4158 C.2         1 E12       0.1811
     15 C3          3.8384   69.0244   62.7090 C.2         1 E12       0.0883
     16 N30        -1.6424   60.7085   72.7964 N.am        1 E12      -0.2230
     17 C31        -0.8361   61.3463   71.9136 C.2         1 E12       0.0883
     18 C32         0.4149   60.8574   71.6631 C.2         1 E12       0.0225
     19 C33         0.7352   59.6327   72.2203 C.2         1 E12      -0.0779
     20 C34        -0.0793   59.0110   73.1071 C.2         1 E12      -0.0278
     21 O35        -2.0407   59.0610   74.2165 O.2         1 E12      -0.4310
     22 C36        -1.3691   62.5595   71.3116 C.3         1 E12       0.0189
     23 C37         1.4488   61.6422   70.9473 C.3         1 E12      -0.0032
     24 C38         1.0131   63.1181   70.6786 C.3         1 E12      -0.0041
     25 C39        -0.4614   63.1896   70.2262 C.3         1 E12      -0.0310
     26 N40         1.8762   61.0278   69.6550 N.4         1 E12       0.2346
     27 C41         2.5592   59.7033   69.6451 C.3         1 E12      -0.0329
     28 C64         3.0877   66.0955   68.8251 C.3         1 E12      -0.0483
     29 C65         3.8655   66.2354   70.1712 C.3         1 E12      -0.0529
     30 C66         4.9656   65.1737   70.4923 C.3         1 E12      -0.0531
     31 C67         4.4151   63.7766   70.8690 C.3         1 E12      -0.0531
     32 C68         5.4778   62.8492   71.5232 C.3         1 E12      -0.0531
     33 C69         4.8751   61.7088   72.4113 C.3         1 E12      -0.0531
     34 C70         5.4327   60.2708   72.1469 C.3         1 E12      -0.0529
     35 C71         4.4541   59.3194   71.4001 C.3         1 E12      -0.0483
     36 C72         4.0818   59.7777   69.9545 C.3         1 E12      -0.0126
     37 H1          3.0770   69.3242   60.8756 H           1 E12       0.2526
     38 H2          1.9798   69.1686   65.3708 H           1 E12       0.0600
     39 H3          7.2475   68.6203   62.8276 H           1 E12       0.0298
     40 H4          6.4220   69.9857   63.6038 H           1 E12       0.0298
     41 H5          3.7098   66.5540   65.1320 H           1 E12       0.2022
     42 H6          3.0781   67.6151   66.2253 H           1 E12       0.2022
     43 H7          5.0822   67.4289   67.5960 H           1 E12       0.0814
     44 H8          5.6255   66.1945   66.4479 H           1 E12       0.0814
     45 H9          0.3226   69.5640   63.8014 H           1 E12       0.0298
     46 H10         5.3787   69.6952   61.4537 H           1 E12       0.0511
     47 H11         5.2513   67.9426   61.6457 H           1 E12       0.0511
     48 H12         4.6681   69.2720   65.7277 H           1 E12       0.0913
     49 H13         5.8942   67.0158   64.0863 H           1 E12       0.0333
     50 H14         6.6850   68.1276   65.2117 H           1 E12       0.0333
     51 H15         4.5533   64.7682   67.9123 H           1 E12       0.0317
     52 H16         3.1933   65.1550   66.8778 H           1 E12       0.0317
     53 H17        -2.5001   61.1051   73.0148 H           1 E12       0.2526
     54 H18         1.5515   59.1627   71.9264 H           1 E12       0.0600
     55 H19         0.1611   58.1183   73.4698 H           1 E12       0.0298
     56 H20        -1.5145   63.2830   72.1157 H           1 E12       0.0511
     57 H21        -2.3432   62.3408   70.8620 H           1 E12       0.0511
     58 H22         2.3171   61.7110   71.6039 H           1 E12       0.0913
     59 H23         1.6341   63.5797   69.9078 H           1 E12       0.0333
     60 H24         1.1365   63.7077   71.5969 H           1 E12       0.0333
     61 H25        -0.7612   64.2283   70.0553 H           1 E12       0.0298
     62 H26        -0.5739   62.6452   69.2841 H           1 E12       0.0298
     63 H27         1.0602   60.9696   69.0483 H           1 E12       0.2022
     64 H28         2.5222   61.6759   69.1985 H           1 E12       0.2022
     65 H29         2.0770   58.9947   70.3230 H           1 E12       0.0814
     66 H30         2.4349   59.3085   68.6292 H           1 E12       0.0814
     67 H31         2.2461   65.4163   68.9802 H           1 E12       0.0267
     68 H32         2.6574   67.0761   68.5823 H           1 E12       0.0267
     69 H33         3.1337   66.2283   70.9853 H           1 E12       0.0265
     70 H34         4.3379   67.2216   70.1856 H           1 E12       0.0265
     71 H35         5.5398   65.5561   71.3370 H           1 E12       0.0265
     72 H36         5.6584   65.0972   69.6507 H           1 E12       0.0265
     73 H37         4.0562   63.2796   69.9663 H           1 E12       0.0265
     74 H38         3.5644   63.9212   71.5387 H           1 E12       0.0265
     75 H39         6.1371   63.4484   72.1594 H           1 E12       0.0265
     76 H40         6.0925   62.4309   70.7225 H           1 E12       0.0265
     77 H41         3.7822   61.6988   72.3311 H           1 E12       0.0265
     78 H42         5.1029   61.9551   73.4550 H           1 E12       0.0265
     79 H43         5.6377   59.8033   73.1236 H           1 E12       0.0265
     80 H44         6.3846   60.2992   71.6042 H           1 E12       0.0265
     81 H45         3.5536   59.2132   72.0145 H           1 E12       0.0267
     82 H46         4.9092   58.3225   71.3453 H           1 E12       0.0267
     83 H47         4.6266   59.1466   69.2469 H           1 E12       0.0317
     84 H48         4.4245   60.7951   69.7821 H           1 E12       0.0317
@<TRIPOS>BOND
     1     1     9   1
     2     1     3   2
     3     1     2  am
     4     2    15   1
     5    15    10   1
     6    15     4   2
     7     4    11   1
     8     4     5   1
     9     5     9   2
    10    11     7   1
    11    11    12   1
    12    12     6   1
    13     6    10   1
    14     7     8   1
    15     8    13   1
    16    13    28   1
    17    28    29   1
    18    29    30   1
    19    30    31   1
    20    31    32   1
    21    32    33   1
    22    33    34   1
    23    34    35   1
    24    35    36   1
    25    36    27   1
    26    27    26   1
    27    26    23   1
    28    23    24   1
    29    23    18   1
    30    18    19   1
    31    18    17   2
    32    17    22   1
    33    17    16   1
    34    16    14  am
    35    14    20   1
    36    14    21   2
    37    20    19   2
    38    22    25   1
    39    25    24   1
    40     2    37   1
    41     5    38   1
    42     6    39   1
    43     6    40   1
    44     7    41   1
    45     7    42   1
    46     8    43   1
    47     8    44   1
    48     9    45   1
    49    10    46   1
    50    10    47   1
    51    11    48   1
    52    12    49   1
    53    12    50   1
    54    13    51   1
    55    13    52   1
    56    16    53   1
    57    19    54   1
    58    20    55   1
    59    22    56   1
    60    22    57   1
    61    23    58   1
    62    24    59   1
    63    24    60   1
    64    25    61   1
    65    25    62   1
    66    26    63   1
    67    26    64   1
    68    27    65   1
    69    27    66   1
    70    28    67   1
    71    28    68   1
    72    29    69   1
    73    29    70   1
    74    30    71   1
    75    30    72   1
    76    31    73   1
    77    31    74   1
    78    32    75   1
    79    32    76   1
    80    33    77   1
    81    33    78   1
    82    34    79   1
    83    34    80   1
    84    35    81   1
    85    35    82   1
    86    36    83   1
    87    36    84   1
@<TRIPOS>SUBSTRUCTURE
     1  E12      1

