@<TRIPOS>MOLECULE
1h23_ligand_050
    84    87
SMALL
GAST_HUCK
****
This file was generated by PARSER (from files_GN.cpp)

@<TRIPOS>ATOM
      1 C1          3.2378   57.5064   72.3999 C.2         1 E12       0.1811
      2 N2          3.8779   58.5615   72.9088 N.am        1 E12      -0.2230
      3 O7          2.9772   56.5499   73.1200 O.2         1 E12      -0.4310
      4 C4          3.8281   59.6975   70.8551 C.2         1 E12       0.0225
      5 C5          3.2301   58.5712   70.3203 C.2         1 E12      -0.0779
      6 C14         5.6715   61.6692   71.8702 C.3         1 E12      -0.0310
      7 N17         2.9275   61.2707   69.1482 N.4         1 E12       0.2346
      8 C24         1.6977   61.8990   69.7022 C.3         1 E12      -0.0329
      9 C6          2.9232   57.4939   71.0737 C.2         1 E12      -0.0278
     10 C9          4.9133   60.7277   72.8385 C.3         1 E12       0.0189
     11 C10         4.0930   60.8698   70.0035 C.3         1 E12      -0.0032
     12 C13         4.7346   62.1019   70.7203 C.3         1 E12      -0.0041
     13 C63         1.1602   61.3875   71.0726 C.3         1 E12      -0.0126
     14 C29         2.5587   68.4174   60.7021 C.2         1 E12       0.1811
     15 C3          4.1837   59.6599   72.1704 C.2         1 E12       0.0883
     16 N30         3.8419   68.1840   60.9650 N.am        1 E12      -0.2230
     17 C31         4.3641   68.3173   62.2024 C.2         1 E12       0.0883
     18 C32         3.5560   68.6804   63.2425 C.2         1 E12       0.0225
     19 C33         2.2432   69.0058   62.9416 C.2         1 E12      -0.0779
     20 C34         1.7414   68.8592   61.6992 C.2         1 E12      -0.0278
     21 O35         2.1448   68.2815   59.5610 O.2         1 E12      -0.4310
     22 C36         5.7969   68.0711   62.3347 C.3         1 E12       0.0189
     23 C37         4.0515   68.8100   64.6287 C.3         1 E12      -0.0032
     24 C38         5.4700   68.1939   64.8398 C.3         1 E12      -0.0041
     25 C39         6.4105   68.5485   63.6709 C.3         1 E12      -0.0310
     26 N40         3.1153   68.1883   65.6194 N.4         1 E12       0.2346
     27 C41         3.0243   68.7697   66.9957 C.3         1 E12      -0.0329
     28 C64        -0.1261   62.0893   71.5850 C.3         1 E12      -0.0483
     29 C65        -0.4724   63.5081   71.0390 C.3         1 E12      -0.0529
     30 C66        -0.2193   64.6825   72.0351 C.3         1 E12      -0.0531
     31 C67        -0.6017   66.1039   71.5085 C.3         1 E12      -0.0531
     32 C68        -0.8409   66.2973   69.9755 C.3         1 E12      -0.0531
     33 C69         0.3148   66.9149   69.1332 C.3         1 E12      -0.0531
     34 C70         1.7290   66.3307   69.4079 C.3         1 E12      -0.0529
     35 C71         2.7467   66.4546   68.2393 C.3         1 E12      -0.0483
     36 C72         3.5060   67.8165   68.1285 C.3         1 E12      -0.0126
     37 H1          4.1138   58.5423   73.8545 H           1 E12       0.2526
     38 H2          3.0385   58.5230   69.3442 H           1 E12       0.0600
     39 H3          6.0215   62.5449   72.4173 H           1 E12       0.0298
     40 H4          6.5371   61.1467   71.4558 H           1 E12       0.0298
     41 H5          2.6365   60.4395   68.6288 H           1 E12       0.2022
     42 H6          3.2997   61.9265   68.4520 H           1 E12       0.2022
     43 H7          0.9245   61.7438   68.9404 H           1 E12       0.0814
     44 H8          1.8708   62.9765   69.7702 H           1 E12       0.0814
     45 H9          2.4936   56.6924   70.6593 H           1 E12       0.0298
     46 H10         5.6404   60.3007   73.5350 H           1 E12       0.0511
     47 H11         4.1965   61.3064   73.4264 H           1 E12       0.0511
     48 H12         4.8531   60.5215   69.2966 H           1 E12       0.0913
     49 H13         3.9766   62.7537   71.1547 H           1 E12       0.0333
     50 H14         5.3050   62.7042   70.0045 H           1 E12       0.0333
     51 H15         1.9461   61.5045   71.8206 H           1 E12       0.0317
     52 H16         0.9326   60.3209   70.9824 H           1 E12       0.0317
     53 H17         4.4270   67.9100   60.2413 H           1 E12       0.2526
     54 H18         1.6480   69.3873   63.6360 H           1 E12       0.0600
     55 H19         0.7937   69.1001   61.5064 H           1 E12       0.0298
     56 H20         6.3316   68.5801   61.5259 H           1 E12       0.0511
     57 H21         5.9658   66.9970   62.2191 H           1 E12       0.0511
     58 H22         4.1144   69.8817   64.8267 H           1 E12       0.0913
     59 H23         5.3978   67.1007   64.9168 H           1 E12       0.0333
     60 H24         5.9038   68.5686   65.7663 H           1 E12       0.0333
     61 H25         6.5579   69.6310   63.6445 H           1 E12       0.0298
     62 H26         7.3833   68.0741   63.8217 H           1 E12       0.0298
     63 H27         2.1631   68.2388   65.2337 H           1 E12       0.2022
     64 H28         3.3546   67.1907   65.6925 H           1 E12       0.2022
     65 H29         3.5884   69.7089   67.0596 H           1 E12       0.0814
     66 H30         1.9759   69.0261   67.1676 H           1 E12       0.0814
     67 H31        -0.0895   62.1220   72.6803 H           1 E12       0.0267
     68 H32        -0.9658   61.4436   71.3229 H           1 E12       0.0267
     69 H33        -1.5402   63.5045   70.7730 H           1 E12       0.0265
     70 H34         0.1126   63.6749   70.1245 H           1 E12       0.0265
     71 H35         0.8391   64.6733   72.3299 H           1 E12       0.0265
     72 H36        -0.8105   64.5047   72.9435 H           1 E12       0.0265
     73 H37         0.1711   66.8027   71.8304 H           1 E12       0.0265
     74 H38        -1.5244   66.3983   72.0148 H           1 E12       0.0265
     75 H39        -1.6912   66.9790   69.8583 H           1 E12       0.0265
     76 H40        -1.1536   65.3490   69.5247 H           1 E12       0.0265
     77 H41         0.3440   68.0022   69.2976 H           1 E12       0.0265
     78 H42         0.0636   66.7380   68.0781 H           1 E12       0.0265
     79 H43         1.6302   65.2609   69.6150 H           1 E12       0.0265
     80 H44         2.1444   66.8226   70.2956 H           1 E12       0.0265
     81 H45         2.2315   66.2207   67.3016 H           1 E12       0.0267
     82 H46         3.4990   65.6732   68.3874 H           1 E12       0.0267
     83 H47         4.5670   67.6068   67.9633 H           1 E12       0.0317
     84 H48         3.4316   68.3554   69.0780 H           1 E12       0.0317
@<TRIPOS>BOND
     1     1     9   1
     2     1     3   2
     3     1     2  am
     4     2    15   1
     5    15    10   1
     6    15     4   2
     7     4    11   1
     8     4     5   1
     9     5     9   2
    10    11     7   1
    11    11    12   1
    12    12     6   1
    13     6    10   1
    14     7     8   1
    15     8    13   1
    16    13    28   1
    17    28    29   1
    18    29    30   1
    19    30    31   1
    20    31    32   1
    21    32    33   1
    22    33    34   1
    23    34    35   1
    24    35    36   1
    25    36    27   1
    26    27    26   1
    27    26    23   1
    28    23    24   1
    29    23    18   1
    30    18    19   1
    31    18    17   2
    32    17    22   1
    33    17    16   1
    34    16    14  am
    35    14    20   1
    36    14    21   2
    37    20    19   2
    38    22    25   1
    39    25    24   1
    40     2    37   1
    41     5    38   1
    42     6    39   1
    43     6    40   1
    44     7    41   1
    45     7    42   1
    46     8    43   1
    47     8    44   1
    48     9    45   1
    49    10    46   1
    50    10    47   1
    51    11    48   1
    52    12    49   1
    53    12    50   1
    54    13    51   1
    55    13    52   1
    56    16    53   1
    57    19    54   1
    58    20    55   1
    59    22    56   1
    60    22    57   1
    61    23    58   1
    62    24    59   1
    63    24    60   1
    64    25    61   1
    65    25    62   1
    66    26    63   1
    67    26    64   1
    68    27    65   1
    69    27    66   1
    70    28    67   1
    71    28    68   1
    72    29    69   1
    73    29    70   1
    74    30    71   1
    75    30    72   1
    76    31    73   1
    77    31    74   1
    78    32    75   1
    79    32    76   1
    80    33    77   1
    81    33    78   1
    82    34    79   1
    83    34    80   1
    84    35    81   1
    85    35    82   1
    86    36    83   1
    87    36    84   1
@<TRIPOS>SUBSTRUCTURE
     1  E12      1

