@<TRIPOS>MOLECULE
1h23_ligand_009
    84    87
SMALL
GAST_HUCK
****
This file was generated by PARSER (from files_GN.cpp)

@<TRIPOS>ATOM
      1 C1         -1.5839   57.9240   74.9974 C.2         1 E12       0.1811
      2 N2         -1.1796   56.6969   75.3185 N.am        1 E12      -0.2230
      3 O7         -2.4674   58.4543   75.6525 O.2         1 E12      -0.4310
      4 C4          0.4358   56.6853   73.6162 C.2         1 E12       0.0225
      5 C5         -0.0244   57.9440   73.2596 C.2         1 E12      -0.0779
      6 C14         0.9020   53.8660   74.0125 C.3         1 E12      -0.0310
      7 N17         2.6689   56.9809   72.6021 N.4         1 E12       0.2346
      8 C24         2.9557   57.3377   71.1879 C.3         1 E12      -0.0329
      9 C6         -1.0114   58.5609   73.9383 C.2         1 E12      -0.0278
     10 C9          0.0760   54.6758   75.0435 C.3         1 E12       0.0189
     11 C10         1.5172   56.0473   72.8374 C.3         1 E12      -0.0032
     12 C13         2.0630   54.7323   73.4724 C.3         1 E12      -0.0041
     13 C63         3.5233   58.7753   71.0596 C.3         1 E12      -0.0126
     14 C29         2.4004   68.9849   65.7646 C.2         1 E12       0.1811
     15 C3         -0.2108   56.0473   74.6336 C.2         1 E12       0.0883
     16 N30         1.7585   68.8999   64.6006 N.am        1 E12      -0.2230
     17 C31         2.3972   68.9620   63.4094 C.2         1 E12       0.0883
     18 C32         3.7522   69.1325   63.3893 C.2         1 E12       0.0225
     19 C33         4.3945   69.3349   64.5978 C.2         1 E12      -0.0779
     20 C34         3.7415   69.2235   65.7723 C.2         1 E12      -0.0278
     21 O35         1.7703   68.8776   66.8071 O.2         1 E12      -0.4310
     22 C36         1.5794   68.8288   62.2104 C.3         1 E12       0.0189
     23 C37         4.5498   69.0440   62.1523 C.3         1 E12      -0.0032
     24 C38         3.7100   69.0632   60.8353 C.3         1 E12      -0.0041
     25 C39         2.3554   68.3276   60.9698 C.3         1 E12      -0.0310
     26 N40         5.5594   67.9427   62.1934 N.4         1 E12       0.2346
     27 C41         5.1807   66.5114   62.2541 C.3         1 E12      -0.0329
     28 C64         3.5008   59.3274   69.6015 C.3         1 E12      -0.0483
     29 C65         4.5001   60.5028   69.3506 C.3         1 E12      -0.0529
     30 C66         3.9147   61.9482   69.2942 C.3         1 E12      -0.0531
     31 C67         3.3545   62.3702   67.9005 C.3         1 E12      -0.0531
     32 C68         3.4472   63.8994   67.6073 C.3         1 E12      -0.0531
     33 C69         3.2380   64.3176   66.1180 C.3         1 E12      -0.0531
     34 C70         4.4729   64.0508   65.2094 C.3         1 E12      -0.0529
     35 C71         4.3879   64.5450   63.7413 C.3         1 E12      -0.0483
     36 C72         4.4936   66.0877   63.5806 C.3         1 E12      -0.0126
     37 H1         -1.6066   56.2472   76.0638 H           1 E12       0.2526
     38 H2          0.3767   58.4220   72.4876 H           1 E12       0.0600
     39 H3          1.2966   52.9582   74.4795 H           1 E12       0.0298
     40 H4          0.2543   53.5647   73.1825 H           1 E12       0.0298
     41 H5          3.5186   56.5710   72.9995 H           1 E12       0.2022
     42 H6          2.4826   57.8445   73.1164 H           1 E12       0.2022
     43 H7          2.0462   57.2733   70.5885 H           1 E12       0.0814
     44 H8          3.6786   56.6212   70.7888 H           1 E12       0.0814
     45 H9         -1.3188   59.4657   73.6603 H           1 E12       0.0298
     46 H10        -0.8641   54.1417   75.2127 H           1 E12       0.0511
     47 H11         0.6152   54.7090   75.9941 H           1 E12       0.0511
     48 H12         1.0638   55.7625   71.8840 H           1 E12       0.0913
     49 H13         2.7376   54.9680   74.3007 H           1 E12       0.0333
     50 H14         2.6273   54.1630   72.7286 H           1 E12       0.0333
     51 H15         4.5514   58.7653   71.4343 H           1 E12       0.0317
     52 H16         2.9382   59.4477   71.6930 H           1 E12       0.0317
     53 H17         0.7956   68.7812   64.6098 H           1 E12       0.2526
     54 H18         5.3650   69.5535   64.6148 H           1 E12       0.0600
     55 H19         4.2278   69.3525   66.6284 H           1 E12       0.0298
     56 H20         1.1399   69.8047   61.9875 H           1 E12       0.0511
     57 H21         0.7582   68.1288   62.3944 H           1 E12       0.0511
     58 H22         5.1561   69.9570   62.1111 H           1 E12       0.0913
     59 H23         4.2832   68.6323   60.0117 H           1 E12       0.0333
     60 H24         3.4955   70.1039   60.5698 H           1 E12       0.0333
     61 H25         1.7573   68.4923   60.0701 H           1 E12       0.0298
     62 H26         2.5141   67.2543   61.0617 H           1 E12       0.0298
     63 H27         6.1344   68.0330   61.3530 H           1 E12       0.2022
     64 H28         6.1735   68.1179   62.9928 H           1 E12       0.2022
     65 H29         4.5839   66.2135   61.3933 H           1 E12       0.0814
     66 H30         6.1250   65.9691   62.1777 H           1 E12       0.0814
     67 H31         2.4837   59.6386   69.3475 H           1 E12       0.0267
     68 H32         3.7620   58.5064   68.9262 H           1 E12       0.0267
     69 H33         5.0219   60.3105   68.4104 H           1 E12       0.0265
     70 H34         5.2705   60.4845   70.1247 H           1 E12       0.0265
     71 H35         4.7292   62.6296   69.5582 H           1 E12       0.0265
     72 H36         3.1386   62.0682   70.0539 H           1 E12       0.0265
     73 H37         2.3092   62.0538   67.8187 H           1 E12       0.0265
     74 H38         3.9117   61.8398   67.1319 H           1 E12       0.0265
     75 H39         4.4253   64.2713   67.9231 H           1 E12       0.0265
     76 H40         2.7022   64.4106   68.2249 H           1 E12       0.0265
     77 H41         3.0221   65.3885   66.1047 H           1 E12       0.0265
     78 H42         2.3662   63.7994   65.7114 H           1 E12       0.0265
     79 H43         4.6508   62.9751   65.1645 H           1 E12       0.0265
     80 H44         5.3489   64.5127   65.6698 H           1 E12       0.0265
     81 H45         3.4569   64.1982   63.2846 H           1 E12       0.0267
     82 H46         5.2157   64.0727   63.1970 H           1 E12       0.0267
     83 H47         5.0776   66.5002   64.4120 H           1 E12       0.0317
     84 H48         3.4883   66.5079   63.6249 H           1 E12       0.0317
@<TRIPOS>BOND
     1     1     9   1
     2     1     3   2
     3     1     2  am
     4     2    15   1
     5    15    10   1
     6    15     4   2
     7     4    11   1
     8     4     5   1
     9     5     9   2
    10    11     7   1
    11    11    12   1
    12    12     6   1
    13     6    10   1
    14     7     8   1
    15     8    13   1
    16    13    28   1
    17    28    29   1
    18    29    30   1
    19    30    31   1
    20    31    32   1
    21    32    33   1
    22    33    34   1
    23    34    35   1
    24    35    36   1
    25    36    27   1
    26    27    26   1
    27    26    23   1
    28    23    24   1
    29    23    18   1
    30    18    19   1
    31    18    17   2
    32    17    22   1
    33    17    16   1
    34    16    14  am
    35    14    20   1
    36    14    21   2
    37    20    19   2
    38    22    25   1
    39    25    24   1
    40     2    37   1
    41     5    38   1
    42     6    39   1
    43     6    40   1
    44     7    41   1
    45     7    42   1
    46     8    43   1
    47     8    44   1
    48     9    45   1
    49    10    46   1
    50    10    47   1
    51    11    48   1
    52    12    49   1
    53    12    50   1
    54    13    51   1
    55    13    52   1
    56    16    53   1
    57    19    54   1
    58    20    55   1
    59    22    56   1
    60    22    57   1
    61    23    58   1
    62    24    59   1
    63    24    60   1
    64    25    61   1
    65    25    62   1
    66    26    63   1
    67    26    64   1
    68    27    65   1
    69    27    66   1
    70    28    67   1
    71    28    68   1
    72    29    69   1
    73    29    70   1
    74    30    71   1
    75    30    72   1
    76    31    73   1
    77    31    74   1
    78    32    75   1
    79    32    76   1
    80    33    77   1
    81    33    78   1
    82    34    79   1
    83    34    80   1
    84    35    81   1
    85    35    82   1
    86    36    83   1
    87    36    84   1
@<TRIPOS>SUBSTRUCTURE
     1  E12      1

