@<TRIPOS>MOLECULE
1h23_ligand_066
    84    87
SMALL
GAST_HUCK
****
This file was generated by PARSER (from files_GN.cpp)

@<TRIPOS>ATOM
      1 C1          1.3425   55.9067   76.9818 C.2         1 E12       0.1811
      2 N2          1.0931   57.2123   77.0189 N.am        1 E12      -0.2230
      3 O7          0.6476   55.1432   77.6354 O.2         1 E12      -0.4310
      4 C4          2.8473   57.6818   75.5326 C.2         1 E12       0.0225
      5 C5          3.1363   56.3295   75.5424 C.2         1 E12      -0.0779
      6 C14         2.6163   60.5086   76.0962 C.3         1 E12      -0.0310
      7 N17         4.0462   58.1665   73.3774 N.4         1 E12       0.2346
      8 C24         2.9752   57.9019   72.3797 C.3         1 E12      -0.0329
      9 C6          2.3932   55.4467   76.2419 C.2         1 E12      -0.0278
     10 C9          1.5088   59.5236   76.5478 C.3         1 E12       0.0189
     11 C10         3.6868   58.6166   74.7557 C.3         1 E12      -0.0032
     12 C13         3.1553   60.0827   74.7140 C.3         1 E12      -0.0041
     13 C63         3.5552   57.7271   70.9451 C.3         1 E12      -0.0126
     14 C29         0.5698   68.9830   63.5867 C.2         1 E12       0.1811
     15 C3          1.8391   58.1177   76.3441 C.2         1 E12       0.0883
     16 N30        -0.5416   68.9115   64.3187 N.am        1 E12      -0.2230
     17 C31        -0.5300   68.6258   65.6425 C.2         1 E12       0.0883
     18 C32         0.6580   68.3689   66.2595 C.2         1 E12       0.0225
     19 C33         1.8063   68.4216   65.4887 C.2         1 E12      -0.0779
     20 C34         1.7714   68.7349   64.1786 C.2         1 E12      -0.0278
     21 O35         0.4888   69.2550   62.3985 O.2         1 E12      -0.4310
     22 C36        -1.8296   68.5455   66.3085 C.3         1 E12       0.0189
     23 C37         0.7478   68.0197   67.6931 C.3         1 E12      -0.0032
     24 C38        -0.6008   67.5051   68.2738 C.3         1 E12      -0.0041
     25 C39        -1.7628   68.4317   67.8550 C.3         1 E12      -0.0310
     26 N40         1.2291   69.1844   68.4990 N.4         1 E12       0.2346
     27 C41         2.6670   69.2585   68.8809 C.3         1 E12      -0.0329
     28 C64         3.5809   59.0227   70.0844 C.3         1 E12      -0.0483
     29 C65         4.1027   60.2808   70.8285 C.3         1 E12      -0.0529
     30 C66         3.7990   61.6255   70.1111 C.3         1 E12      -0.0531
     31 C67         4.1008   62.8715   71.0066 C.3         1 E12      -0.0531
     32 C68         5.4330   63.6217   70.6995 C.3         1 E12      -0.0531
     33 C69         5.2839   64.7770   69.6706 C.3         1 E12      -0.0531
     34 C70         4.6033   66.0516   70.2595 C.3         1 E12      -0.0529
     35 C71         3.9001   66.9464   69.1998 C.3         1 E12      -0.0483
     36 C72         3.1327   68.1355   69.8585 C.3         1 E12      -0.0126
     37 H1          0.3598   57.5302   77.5704 H           1 E12       0.2526
     38 H2          3.9130   55.9814   75.0300 H           1 E12       0.0600
     39 H3          2.2147   61.5239   76.0455 H           1 E12       0.0298
     40 H4          3.4341   60.5016   76.8219 H           1 E12       0.0298
     41 H5          4.5773   57.2987   73.4669 H           1 E12       0.2022
     42 H6          4.6868   58.8572   72.9910 H           1 E12       0.2022
     43 H7          2.2282   58.6928   72.3788 H           1 E12       0.0814
     44 H8          2.4750   56.9708   72.6674 H           1 E12       0.0814
     45 H9          2.6239   54.4793   76.2328 H           1 E12       0.0298
     46 H10         1.3160   59.7054   77.6099 H           1 E12       0.0511
     47 H11         0.5856   59.7390   76.0017 H           1 E12       0.0511
     48 H12         4.6422   58.6605   75.2941 H           1 E12       0.0913
     49 H13         2.3423   60.1754   73.9899 H           1 E12       0.0333
     50 H14         3.9550   60.7655   74.4120 H           1 E12       0.0333
     51 H15         2.9361   56.9982   70.4124 H           1 E12       0.0317
     52 H16         4.5623   57.3065   70.9996 H           1 E12       0.0317
     53 H17        -1.3930   69.0846   63.8859 H           1 E12       0.2526
     54 H18         2.6881   68.2096   65.8886 H           1 E12       0.0600
     55 H19         2.6089   68.7629   63.6462 H           1 E12       0.0298
     56 H20        -2.3515   67.6664   65.9157 H           1 E12       0.0511
     57 H21        -2.4221   69.4322   66.0638 H           1 E12       0.0511
     58 H22         1.4382   67.1792   67.8089 H           1 E12       0.0913
     59 H23        -0.5480   67.4404   69.3661 H           1 E12       0.0333
     60 H24        -0.8017   66.4984   67.8942 H           1 E12       0.0333
     61 H25        -2.7064   68.0292   68.2389 H           1 E12       0.0298
     62 H26        -1.6114   69.4287   68.2928 H           1 E12       0.0298
     63 H27         1.0050   70.0363   67.9740 H           1 E12       0.2022
     64 H28         0.6942   69.2302   69.3746 H           1 E12       0.2022
     65 H29         3.2997   69.2982   67.9916 H           1 E12       0.0814
     66 H30         2.7833   70.2178   69.3919 H           1 E12       0.0814
     67 H31         2.5639   59.2096   69.7217 H           1 E12       0.0267
     68 H32         4.2123   58.8513   69.2068 H           1 E12       0.0267
     69 H33         5.1799   60.1953   70.9927 H           1 E12       0.0265
     70 H34         3.6045   60.3150   71.7920 H           1 E12       0.0265
     71 H35         2.7357   61.6469   69.8471 H           1 E12       0.0265
     72 H36         4.3651   61.6790   69.1765 H           1 E12       0.0265
     73 H37         4.1180   62.5815   72.0608 H           1 E12       0.0265
     74 H38         3.2619   63.5666   70.9149 H           1 E12       0.0265
     75 H39         6.1631   62.9019   70.3282 H           1 E12       0.0265
     76 H40         5.8403   64.0345   71.6257 H           1 E12       0.0265
     77 H41         4.7195   64.4077   68.8093 H           1 E12       0.0265
     78 H42         6.2783   65.0590   69.3104 H           1 E12       0.0265
     79 H43         5.3623   66.6415   70.7766 H           1 E12       0.0265
     80 H44         3.8617   65.7636   71.0081 H           1 E12       0.0265
     81 H45         3.1939   66.3297   68.6432 H           1 E12       0.0267
     82 H46         4.6494   67.3242   68.4970 H           1 E12       0.0267
     83 H47         3.7941   68.5883   70.6056 H           1 E12       0.0317
     84 H48         2.2569   67.7408   70.3881 H           1 E12       0.0317
@<TRIPOS>BOND
     1     1     9   1
     2     1     3   2
     3     1     2  am
     4     2    15   1
     5    15    10   1
     6    15     4   2
     7     4    11   1
     8     4     5   1
     9     5     9   2
    10    11     7   1
    11    11    12   1
    12    12     6   1
    13     6    10   1
    14     7     8   1
    15     8    13   1
    16    13    28   1
    17    28    29   1
    18    29    30   1
    19    30    31   1
    20    31    32   1
    21    32    33   1
    22    33    34   1
    23    34    35   1
    24    35    36   1
    25    36    27   1
    26    27    26   1
    27    26    23   1
    28    23    24   1
    29    23    18   1
    30    18    19   1
    31    18    17   2
    32    17    22   1
    33    17    16   1
    34    16    14  am
    35    14    20   1
    36    14    21   2
    37    20    19   2
    38    22    25   1
    39    25    24   1
    40     2    37   1
    41     5    38   1
    42     6    39   1
    43     6    40   1
    44     7    41   1
    45     7    42   1
    46     8    43   1
    47     8    44   1
    48     9    45   1
    49    10    46   1
    50    10    47   1
    51    11    48   1
    52    12    49   1
    53    12    50   1
    54    13    51   1
    55    13    52   1
    56    16    53   1
    57    19    54   1
    58    20    55   1
    59    22    56   1
    60    22    57   1
    61    23    58   1
    62    24    59   1
    63    24    60   1
    64    25    61   1
    65    25    62   1
    66    26    63   1
    67    26    64   1
    68    27    65   1
    69    27    66   1
    70    28    67   1
    71    28    68   1
    72    29    69   1
    73    29    70   1
    74    30    71   1
    75    30    72   1
    76    31    73   1
    77    31    74   1
    78    32    75   1
    79    32    76   1
    80    33    77   1
    81    33    78   1
    82    34    79   1
    83    34    80   1
    84    35    81   1
    85    35    82   1
    86    36    83   1
    87    36    84   1
@<TRIPOS>SUBSTRUCTURE
     1  E12      1

