@<TRIPOS>MOLECULE
1h23_ligand_081
    84    87
SMALL
GAST_HUCK
****
This file was generated by PARSER (from files_GN.cpp)

@<TRIPOS>ATOM
      1 C1          2.3757   61.3599   74.2107 C.2         1 E12       0.1811
      2 N2          2.9678   60.5733   75.1109 N.am        1 E12      -0.2230
      3 O7          2.5653   62.5688   74.2520 O.2         1 E12      -0.4310
      4 C4          2.0752   58.6368   74.1236 C.2         1 E12       0.0225
      5 C5          1.3320   59.4730   73.3091 C.2         1 E12      -0.0779
      6 C14         2.6526   57.1271   76.4731 C.3         1 E12      -0.0310
      7 N17         2.5635   56.5847   72.7014 N.4         1 E12       0.2346
      8 C24         2.3926   57.2016   71.3575 C.3         1 E12      -0.0329
      9 C6          1.5092   60.8112   73.3123 C.2         1 E12      -0.0278
     10 C9          3.3419   58.4972   76.2519 C.3         1 E12       0.0189
     11 C10         1.9834   57.1641   73.9617 C.3         1 E12      -0.0032
     12 C13         2.6357   56.3493   75.1370 C.3         1 E12      -0.0041
     13 C63         3.5103   58.2355   71.0427 C.3         1 E12      -0.0126
     14 C29         2.2104   68.9908   65.7044 C.2         1 E12       0.1811
     15 C3          2.7891   59.2321   75.1219 C.2         1 E12       0.0883
     16 N30         1.6356   68.8806   64.5085 N.am        1 E12      -0.2230
     17 C31         2.3465   68.8740   63.3575 C.2         1 E12       0.0883
     18 C32         3.7037   68.9804   63.4096 C.2         1 E12       0.0225
     19 C33         4.2905   69.1560   64.6510 C.2         1 E12      -0.0779
     20 C34         3.5590   69.1559   65.7861 C.2         1 E12      -0.0278
     21 O35         1.5113   68.9788   66.7057 O.2         1 E12      -0.4310
     22 C36         1.5893   68.8146   62.1139 C.3         1 E12       0.0189
     23 C37         4.5602   68.8765   62.2144 C.3         1 E12      -0.0032
     24 C38         3.7974   68.9437   60.8513 C.3         1 E12      -0.0041
     25 C39         2.3973   68.2907   60.9051 C.3         1 E12      -0.0310
     26 N40         5.5307   67.7404   62.2823 N.4         1 E12       0.2346
     27 C41         5.0976   66.3213   62.3632 C.3         1 E12      -0.0329
     28 C64         3.1009   59.3679   70.0551 C.3         1 E12      -0.0483
     29 C65         4.2699   60.3743   69.8092 C.3         1 E12      -0.0529
     30 C66         3.8803   61.8353   69.4516 C.3         1 E12      -0.0531
     31 C67         3.5176   62.1044   67.9669 C.3         1 E12      -0.0531
     32 C68         3.4062   63.6305   67.6700 C.3         1 E12      -0.0531
     33 C69         3.2045   64.0343   66.1789 C.3         1 E12      -0.0531
     34 C70         4.4194   63.7060   65.2690 C.3         1 E12      -0.0529
     35 C71         4.3919   64.2957   63.8330 C.3         1 E12      -0.0483
     36 C72         4.5955   65.8375   63.7536 C.3         1 E12      -0.0126
     37 H1          3.5346   60.9840   75.7855 H           1 E12       0.2526
     38 H2          0.5956   59.0999   72.7580 H           1 E12       0.0600
     39 H3          3.1946   56.5569   77.2345 H           1 E12       0.0298
     40 H4          1.6250   57.2748   76.8248 H           1 E12       0.0298
     41 H5          2.1751   55.6398   72.6259 H           1 E12       0.2022
     42 H6          3.5711   56.4743   72.8492 H           1 E12       0.2022
     43 H7          1.4000   57.6341   71.2604 H           1 E12       0.0814
     44 H8          2.4598   56.3994   70.6197 H           1 E12       0.0814
     45 H9          0.9448   61.3966   72.7349 H           1 E12       0.0298
     46 H10         3.2193   59.0829   77.1701 H           1 E12       0.0511
     47 H11         4.4123   58.3514   76.0870 H           1 E12       0.0511
     48 H12         0.9152   56.9151   73.9747 H           1 E12       0.0913
     49 H13         3.6769   56.1048   74.9038 H           1 E12       0.0333
     50 H14         2.1057   55.4026   75.2756 H           1 E12       0.0333
     51 H15         4.3733   57.7026   70.6357 H           1 E12       0.0317
     52 H16         3.8301   58.7036   71.9770 H           1 E12       0.0317
     53 H17         0.6712   68.7913   64.4606 H           1 E12       0.2526
     54 H18         5.2739   69.2941   64.7245 H           1 E12       0.0600
     55 H19         4.0013   69.2955   66.6650 H           1 E12       0.0298
     56 H20         1.2262   69.8223   61.8940 H           1 E12       0.0511
     57 H21         0.7158   68.1667   62.2376 H           1 E12       0.0511
     58 H22         5.1962   69.7700   62.2205 H           1 E12       0.0913
     59 H23         4.3822   68.4705   60.0602 H           1 E12       0.0333
     60 H24         3.6658   69.9937   60.5647 H           1 E12       0.0333
     61 H25         1.8563   68.5040   59.9814 H           1 E12       0.0298
     62 H26         2.4900   67.2106   60.9851 H           1 E12       0.0298
     63 H27         6.1137   67.8063   61.4409 H           1 E12       0.2022
     64 H28         6.1452   67.9083   63.0815 H           1 E12       0.2022
     65 H29         4.3633   66.0899   61.5953 H           1 E12       0.0814
     66 H30         5.9915   65.7446   62.1213 H           1 E12       0.0814
     67 H31         2.2446   59.8999   70.4770 H           1 E12       0.0267
     68 H32         2.7853   58.9323   69.0999 H           1 E12       0.0267
     69 H33         4.9288   59.9746   69.0340 H           1 E12       0.0265
     70 H34         4.8657   60.4373   70.7241 H           1 E12       0.0265
     71 H35         4.7457   62.4572   69.6944 H           1 E12       0.0265
     72 H36         3.0587   62.1641   70.0899 H           1 E12       0.0265
     73 H37         2.5711   61.6164   67.7243 H           1 E12       0.0265
     74 H38         4.2942   61.6705   67.3373 H           1 E12       0.0265
     75 H39         4.3076   64.1341   68.0333 H           1 E12       0.0265
     76 H40         2.5677   64.0268   68.2514 H           1 E12       0.0265
     77 H41         3.0260   65.1127   66.1558 H           1 E12       0.0265
     78 H42         2.3127   63.5408   65.7865 H           1 E12       0.0265
     79 H43         4.4891   62.6206   65.1738 H           1 E12       0.0265
     80 H44         5.3278   64.0583   65.7562 H           1 E12       0.0265
     81 H45         3.4512   64.0306   63.3422 H           1 E12       0.0267
     82 H46         5.1989   63.8059   63.2801 H           1 E12       0.0267
     83 H47         5.3289   66.1449   64.5038 H           1 E12       0.0317
     84 H48         3.6438   66.3186   63.9869 H           1 E12       0.0317
@<TRIPOS>BOND
     1     1     9   1
     2     1     3   2
     3     1     2  am
     4     2    15   1
     5    15    10   1
     6    15     4   2
     7     4    11   1
     8     4     5   1
     9     5     9   2
    10    11     7   1
    11    11    12   1
    12    12     6   1
    13     6    10   1
    14     7     8   1
    15     8    13   1
    16    13    28   1
    17    28    29   1
    18    29    30   1
    19    30    31   1
    20    31    32   1
    21    32    33   1
    22    33    34   1
    23    34    35   1
    24    35    36   1
    25    36    27   1
    26    27    26   1
    27    26    23   1
    28    23    24   1
    29    23    18   1
    30    18    19   1
    31    18    17   2
    32    17    22   1
    33    17    16   1
    34    16    14  am
    35    14    20   1
    36    14    21   2
    37    20    19   2
    38    22    25   1
    39    25    24   1
    40     2    37   1
    41     5    38   1
    42     6    39   1
    43     6    40   1
    44     7    41   1
    45     7    42   1
    46     8    43   1
    47     8    44   1
    48     9    45   1
    49    10    46   1
    50    10    47   1
    51    11    48   1
    52    12    49   1
    53    12    50   1
    54    13    51   1
    55    13    52   1
    56    16    53   1
    57    19    54   1
    58    20    55   1
    59    22    56   1
    60    22    57   1
    61    23    58   1
    62    24    59   1
    63    24    60   1
    64    25    61   1
    65    25    62   1
    66    26    63   1
    67    26    64   1
    68    27    65   1
    69    27    66   1
    70    28    67   1
    71    28    68   1
    72    29    69   1
    73    29    70   1
    74    30    71   1
    75    30    72   1
    76    31    73   1
    77    31    74   1
    78    32    75   1
    79    32    76   1
    80    33    77   1
    81    33    78   1
    82    34    79   1
    83    34    80   1
    84    35    81   1
    85    35    82   1
    86    36    83   1
    87    36    84   1
@<TRIPOS>SUBSTRUCTURE
     1  E12      1

