@<TRIPOS>MOLECULE
1h23_ligand_012
    84    87
SMALL
GAST_HUCK
****
This file was generated by PARSER (from files_GN.cpp)

@<TRIPOS>ATOM
      1 C1          1.1294   69.1101   61.8549 C.2         1 E12       0.1811
      2 N2          2.2757   68.6960   61.3214 N.am        1 E12      -0.2230
      3 O7          0.5133   70.0164   61.3132 O.2         1 E12      -0.4310
      4 C4          2.6271   67.1357   63.0451 C.2         1 E12       0.0225
      5 C5          1.4187   67.5601   63.5828 C.2         1 E12      -0.0779
      6 C14         5.3858   66.8284   62.2268 C.3         1 E12      -0.0310
      7 N17         2.7287   64.9680   64.2687 N.4         1 E12       0.2346
      8 C24         2.8620   64.5421   65.6828 C.3         1 E12      -0.0329
      9 C6          0.6771   68.5246   62.9990 C.2         1 E12      -0.0278
     10 C9          4.3639   67.5401   61.3035 C.3         1 E12       0.0189
     11 C10         3.4755   66.1691   63.7815 C.3         1 E12      -0.0032
     12 C13         4.6915   65.6542   62.9508 C.3         1 E12      -0.0041
     13 C63         4.3055   64.2106   66.1691 C.3         1 E12      -0.0126
     14 C29         3.8900   57.5890   70.8457 C.2         1 E12       0.1811
     15 C3          3.0612   67.7715   61.9170 C.2         1 E12       0.0883
     16 N30         3.8598   57.8789   72.1449 N.am        1 E12      -0.2230
     17 C31         3.2404   58.9811   72.6294 C.2         1 E12       0.0883
     18 C32         2.5499   59.7946   71.7797 C.2         1 E12       0.0225
     19 C33         2.6328   59.5147   70.4235 C.2         1 E12      -0.0779
     20 C34         3.2774   58.4246   69.9608 C.2         1 E12      -0.0278
     21 O35         4.4903   56.5899   70.4745 O.2         1 E12      -0.4310
     22 C36         3.3617   59.2283   74.0608 C.3         1 E12       0.0189
     23 C37         1.7841   60.9758   72.2378 C.3         1 E12      -0.0032
     24 C38         1.7663   61.1684   73.7931 C.3         1 E12      -0.0041
     25 C39         3.0786   60.6975   74.4561 C.3         1 E12      -0.0310
     26 N40         0.3755   60.9011   71.7376 N.4         1 E12       0.2346
     27 C41        -0.4556   62.1337   71.8128 C.3         1 E12      -0.0329
     28 C64         5.2049   65.4350   66.5333 C.3         1 E12      -0.0483
     29 C65         5.8121   65.4271   67.9687 C.3         1 E12      -0.0529
     30 C66         4.8101   65.5675   69.1528 C.3         1 E12      -0.0531
     31 C67         3.6891   66.6273   68.9415 C.3         1 E12      -0.0531
     32 C68         2.8526   66.9578   70.2103 C.3         1 E12      -0.0531
     33 C69         1.3961   66.4175   70.2554 C.3         1 E12      -0.0531
     34 C70         1.2401   64.8877   70.4828 C.3         1 E12      -0.0529
     35 C71        -0.2501   64.4698   70.6238 C.3         1 E12      -0.0483
     36 C72        -0.4967   62.9402   70.4788 C.3         1 E12      -0.0126
     37 H1          2.5941   69.1243   60.5122 H           1 E12       0.2526
     38 H2          1.0677   67.1449   64.4155 H           1 E12       0.0600
     39 H3          6.2287   66.4616   61.6353 H           1 E12       0.0298
     40 H4          5.7706   67.5383   62.9684 H           1 E12       0.0298
     41 H5          2.9857   64.1597   63.6913 H           1 E12       0.2022
     42 H6          1.7341   65.1399   64.1168 H           1 E12       0.2022
     43 H7          2.2746   63.6233   65.7595 H           1 E12       0.0814
     44 H8          2.3873   65.2710   66.3434 H           1 E12       0.0814
     45 H9         -0.1836   68.8159   63.4052 H           1 E12       0.0298
     46 H10         4.7930   68.5028   61.0087 H           1 E12       0.0511
     47 H11         4.2153   66.9405   60.3975 H           1 E12       0.0511
     48 H12         3.8776   66.7246   64.6263 H           1 E12       0.0913
     49 H13         4.3524   64.9316   62.1963 H           1 E12       0.0333
     50 H14         5.4118   65.1470   63.5998 H           1 E12       0.0333
     51 H15         4.7923   63.6135   65.3933 H           1 E12       0.0317
     52 H16         4.2143   63.5570   67.0418 H           1 E12       0.0317
     53 H17         4.3187   57.2839   72.7596 H           1 E12       0.2526
     54 H18         2.2181   60.1307   69.7625 H           1 E12       0.0600
     55 H19         3.3159   58.2473   68.9827 H           1 E12       0.0298
     56 H20         4.3744   58.9836   74.3942 H           1 E12       0.0511
     57 H21         2.6685   58.5649   74.5841 H           1 E12       0.0511
     58 H22         2.2703   61.8522   71.7968 H           1 E12       0.0913
     59 H23         0.9418   60.5963   74.2306 H           1 E12       0.0333
     60 H24         1.6066   62.2206   74.0405 H           1 E12       0.0333
     61 H25         3.9049   61.3359   74.1272 H           1 E12       0.0298
     62 H26         2.9985   60.7785   75.5440 H           1 E12       0.0298
     63 H27         0.3891   60.6100   70.7596 H           1 E12       0.2022
     64 H28        -0.1032   60.1633   72.2622 H           1 E12       0.2022
     65 H29        -1.4745   61.8163   72.0538 H           1 E12       0.0814
     66 H30        -0.1340   62.7674   72.6391 H           1 E12       0.0814
     67 H31         4.6591   66.3708   66.4197 H           1 E12       0.0267
     68 H32         6.0326   65.4770   65.8187 H           1 E12       0.0267
     69 H33         6.5299   66.2495   68.0292 H           1 E12       0.0265
     70 H34         6.3795   64.5029   68.1180 H           1 E12       0.0265
     71 H35         5.3921   65.8442   70.0414 H           1 E12       0.0265
     72 H36         4.3626   64.5905   69.3448 H           1 E12       0.0265
     73 H37         3.0178   66.2976   68.1495 H           1 E12       0.0265
     74 H38         4.1680   67.5472   68.5938 H           1 E12       0.0265
     75 H39         2.7819   68.0461   70.2755 H           1 E12       0.0265
     76 H40         3.3862   66.6240   71.0980 H           1 E12       0.0265
     77 H41         0.8966   66.7030   69.3245 H           1 E12       0.0265
     78 H42         0.8741   66.9293   71.0693 H           1 E12       0.0265
     79 H43         1.7848   64.5962   71.3851 H           1 E12       0.0265
     80 H44         1.6681   64.3561   69.6319 H           1 E12       0.0265
     81 H45        -0.8232   64.9715   69.8404 H           1 E12       0.0267
     82 H46        -0.6418   64.8188   71.5844 H           1 E12       0.0267
     83 H47         0.2150   62.5238   69.7611 H           1 E12       0.0317
     84 H48        -1.4878   62.8018   70.0356 H           1 E12       0.0317
@<TRIPOS>BOND
     1     1     9   1
     2     1     3   2
     3     1     2  am
     4     2    15   1
     5    15    10   1
     6    15     4   2
     7     4    11   1
     8     4     5   1
     9     5     9   2
    10    11     7   1
    11    11    12   1
    12    12     6   1
    13     6    10   1
    14     7     8   1
    15     8    13   1
    16    13    28   1
    17    28    29   1
    18    29    30   1
    19    30    31   1
    20    31    32   1
    21    32    33   1
    22    33    34   1
    23    34    35   1
    24    35    36   1
    25    36    27   1
    26    27    26   1
    27    26    23   1
    28    23    24   1
    29    23    18   1
    30    18    19   1
    31    18    17   2
    32    17    22   1
    33    17    16   1
    34    16    14  am
    35    14    20   1
    36    14    21   2
    37    20    19   2
    38    22    25   1
    39    25    24   1
    40     2    37   1
    41     5    38   1
    42     6    39   1
    43     6    40   1
    44     7    41   1
    45     7    42   1
    46     8    43   1
    47     8    44   1
    48     9    45   1
    49    10    46   1
    50    10    47   1
    51    11    48   1
    52    12    49   1
    53    12    50   1
    54    13    51   1
    55    13    52   1
    56    16    53   1
    57    19    54   1
    58    20    55   1
    59    22    56   1
    60    22    57   1
    61    23    58   1
    62    24    59   1
    63    24    60   1
    64    25    61   1
    65    25    62   1
    66    26    63   1
    67    26    64   1
    68    27    65   1
    69    27    66   1
    70    28    67   1
    71    28    68   1
    72    29    69   1
    73    29    70   1
    74    30    71   1
    75    30    72   1
    76    31    73   1
    77    31    74   1
    78    32    75   1
    79    32    76   1
    80    33    77   1
    81    33    78   1
    82    34    79   1
    83    34    80   1
    84    35    81   1
    85    35    82   1
    86    36    83   1
    87    36    84   1
@<TRIPOS>SUBSTRUCTURE
     1  E12      1

