@<TRIPOS>MOLECULE
1h23_ligand_002
    84    87
SMALL
GAST_HUCK
****
This file was generated by PARSER (from files_GN.cpp)

@<TRIPOS>ATOM
      1 C1          3.9229   57.5530   70.8565 C.2         1 E12       0.1811
      2 N2          3.9078   57.8666   72.1451 N.am        1 E12      -0.2230
      3 O7          4.4899   56.5306   70.5000 O.2         1 E12      -0.4310
      4 C4          2.5902   59.7780   71.7689 C.2         1 E12       0.0225
      5 C5          2.6748   59.4807   70.4124 C.2         1 E12      -0.0779
      6 C14         2.9630   60.6353   74.4955 C.3         1 E12      -0.0310
      7 N17         0.4942   61.0420   71.5238 N.4         1 E12       0.2346
      8 C24        -0.5216   62.0440   71.9177 C.3         1 E12      -0.0329
      9 C6          3.3098   58.3821   69.9606 C.2         1 E12      -0.0278
     10 C9          3.4301   59.2307   74.0511 C.3         1 E12       0.0189
     11 C10         1.8157   60.9524   72.2291 C.3         1 E12      -0.0032
     12 C13         1.6367   60.9860   73.7845 C.3         1 E12      -0.0041
     13 C63        -0.0633   63.5277   71.9506 C.3         1 E12      -0.0126
     14 C29         0.6677   67.8653   64.2078 C.2         1 E12       0.1811
     15 C3          3.2948   58.9776   72.6183 C.2         1 E12       0.0883
     16 N30         1.4159   66.7903   64.4527 N.am        1 E12      -0.2230
     17 C31         2.5705   66.5433   63.7780 C.2         1 E12       0.0883
     18 C32         3.0212   67.4512   62.8677 C.2         1 E12       0.0225
     19 C33         2.1860   68.5188   62.5569 C.2         1 E12      -0.0779
     20 C34         1.0467   68.7410   63.2422 C.2         1 E12      -0.0278
     21 O35        -0.3691   68.0265   64.8493 O.2         1 E12      -0.4310
     22 C36         3.2912   65.3262   64.1337 C.3         1 E12       0.0189
     23 C37         4.3065   67.2907   62.1597 C.3         1 E12      -0.0032
     24 C38         5.2020   66.1193   62.6732 C.3         1 E12      -0.0041
     25 C39         4.3406   64.9077   63.0756 C.3         1 E12      -0.0310
     26 N40         5.1216   68.5347   61.9742 N.4         1 E12       0.2346
     27 C41         5.9437   69.1378   63.0530 C.3         1 E12      -0.0329
     28 C64         0.3617   64.1298   70.5825 C.3         1 E12      -0.0483
     29 C65         1.3329   65.3221   70.7831 C.3         1 E12      -0.0529
     30 C66         1.6965   66.1050   69.4924 C.3         1 E12      -0.0531
     31 C67         2.5164   67.3793   69.8390 C.3         1 E12      -0.0531
     32 C68         2.7297   68.3708   68.6666 C.3         1 E12      -0.0531
     33 C69         3.6777   67.8444   67.5545 C.3         1 E12      -0.0531
     34 C70         3.7865   68.8403   66.3711 C.3         1 E12      -0.0529
     35 C71         4.8945   68.4795   65.3547 C.3         1 E12      -0.0483
     36 C72         5.1873   69.5911   64.3320 C.3         1 E12      -0.0126
     37 H1          4.3656   57.2773   72.7714 H           1 E12       0.2526
     38 H2          2.2714   60.0910   69.7421 H           1 E12       0.0600
     39 H3          2.8231   60.6594   75.5800 H           1 E12       0.0298
     40 H4          3.7221   61.3804   74.2360 H           1 E12       0.0298
     41 H5          0.0483   60.1232   71.5863 H           1 E12       0.2022
     42 H6          0.6939   61.2145   70.5367 H           1 E12       0.2022
     43 H7         -0.9098   61.7817   72.9031 H           1 E12       0.0814
     44 H8         -1.3597   61.9595   71.2188 H           1 E12       0.0814
     45 H9          3.3516   58.1942   68.9851 H           1 E12       0.0298
     46 H10         4.4784   59.1201   74.3446 H           1 E12       0.0511
     47 H11         2.8509   58.4741   74.5878 H           1 E12       0.0511
     48 H12         2.3958   61.8332   71.9398 H           1 E12       0.0913
     49 H13         0.8700   60.2658   74.0830 H           1 E12       0.0333
     50 H14         1.3210   61.9730   74.1188 H           1 E12       0.0333
     51 H15         0.7615   63.6220   72.6593 H           1 E12       0.0317
     52 H16        -0.8852   64.1316   72.3489 H           1 E12       0.0317
     53 H17         1.1340   66.1689   65.1386 H           1 E12       0.2526
     54 H18         2.4283   69.1434   61.8262 H           1 E12       0.0600
     55 H19         0.4811   69.5334   63.0219 H           1 E12       0.0298
     56 H20         2.5846   64.4992   64.2739 H           1 E12       0.0511
     57 H21         3.7998   65.4962   65.0956 H           1 E12       0.0511
     58 H22         4.0173   67.0113   61.1390 H           1 E12       0.0913
     59 H23         5.7842   66.4102   63.5509 H           1 E12       0.0333
     60 H24         5.9201   65.8413   61.9002 H           1 E12       0.0333
     61 H25         3.8353   64.5190   62.1909 H           1 E12       0.0298
     62 H26         4.9804   64.1190   63.4845 H           1 E12       0.0298
     63 H27         5.7621   68.3304   61.2068 H           1 E12       0.2022
     64 H28         4.4937   69.2694   61.6416 H           1 E12       0.2022
     65 H29         6.7872   68.4919   63.3190 H           1 E12       0.0814
     66 H30         6.3883   70.0285   62.6107 H           1 E12       0.0814
     67 H31        -0.5315   64.4667   70.0487 H           1 E12       0.0267
     68 H32         0.8593   63.3774   69.9646 H           1 E12       0.0267
     69 H33         2.2594   64.9432   71.2262 H           1 E12       0.0265
     70 H34         0.8829   66.0271   71.4907 H           1 E12       0.0265
     71 H35         0.7720   66.3919   68.9792 H           1 E12       0.0265
     72 H36         2.2761   65.4642   68.8205 H           1 E12       0.0265
     73 H37         3.4881   67.0857   70.2542 H           1 E12       0.0265
     74 H38         1.9816   67.9234   70.6216 H           1 E12       0.0265
     75 H39         3.1578   69.2920   69.0773 H           1 E12       0.0265
     76 H40         1.7619   68.6229   68.2279 H           1 E12       0.0265
     77 H41         3.2928   66.8936   67.1818 H           1 E12       0.0265
     78 H42         4.6722   67.6679   67.9762 H           1 E12       0.0265
     79 H43         4.0084   69.8453   66.7564 H           1 E12       0.0265
     80 H44         2.8154   68.8930   65.8646 H           1 E12       0.0265
     81 H45         4.5507   67.5709   64.8052 H           1 E12       0.0267
     82 H46         5.8165   68.2010   65.8592 H           1 E12       0.0267
     83 H47         5.8080   70.3364   64.8506 H           1 E12       0.0317
     84 H48         4.2671   70.1003   64.0213 H           1 E12       0.0317
@<TRIPOS>BOND
     1     1     9   1
     2     1     3   2
     3     1     2  am
     4     2    15   1
     5    15    10   1
     6    15     4   2
     7     4    11   1
     8     4     5   1
     9     5     9   2
    10    11     7   1
    11    11    12   1
    12    12     6   1
    13     6    10   1
    14     7     8   1
    15     8    13   1
    16    13    28   1
    17    28    29   1
    18    29    30   1
    19    30    31   1
    20    31    32   1
    21    32    33   1
    22    33    34   1
    23    34    35   1
    24    35    36   1
    25    36    27   1
    26    27    26   1
    27    26    23   1
    28    23    24   1
    29    23    18   1
    30    18    19   1
    31    18    17   2
    32    17    22   1
    33    17    16   1
    34    16    14  am
    35    14    20   1
    36    14    21   2
    37    20    19   2
    38    22    25   1
    39    25    24   1
    40     2    37   1
    41     5    38   1
    42     6    39   1
    43     6    40   1
    44     7    41   1
    45     7    42   1
    46     8    43   1
    47     8    44   1
    48     9    45   1
    49    10    46   1
    50    10    47   1
    51    11    48   1
    52    12    49   1
    53    12    50   1
    54    13    51   1
    55    13    52   1
    56    16    53   1
    57    19    54   1
    58    20    55   1
    59    22    56   1
    60    22    57   1
    61    23    58   1
    62    24    59   1
    63    24    60   1
    64    25    61   1
    65    25    62   1
    66    26    63   1
    67    26    64   1
    68    27    65   1
    69    27    66   1
    70    28    67   1
    71    28    68   1
    72    29    69   1
    73    29    70   1
    74    30    71   1
    75    30    72   1
    76    31    73   1
    77    31    74   1
    78    32    75   1
    79    32    76   1
    80    33    77   1
    81    33    78   1
    82    34    79   1
    83    34    80   1
    84    35    81   1
    85    35    82   1
    86    36    83   1
    87    36    84   1
@<TRIPOS>SUBSTRUCTURE
     1  E12      1

