@<TRIPOS>MOLECULE
1h23_ligand_034
    84    87
SMALL
GAST_HUCK
****
This file was generated by PARSER (from files_GN.cpp)

@<TRIPOS>ATOM
      1 C1          2.4855   68.3871   60.8535 C.2         1 E12       0.1811
      2 N2          3.7886   68.1555   60.9940 N.am        1 E12      -0.2230
      3 O7          1.9674   68.2548   59.7555 O.2         1 E12      -0.4310
      4 C4          3.7407   68.7638   63.2627 C.2         1 E12       0.0225
      5 C5          2.3791   68.9727   63.1155 C.2         1 E12      -0.0779
      6 C14         6.4961   68.0019   63.5833 C.3         1 E12      -0.0310
      7 N17         3.9597   68.1963   65.6532 N.4         1 E12       0.2346
      8 C24         3.1505   68.8065   66.7453 C.3         1 E12      -0.0329
      9 C6          1.7574   68.7915   61.9350 C.2         1 E12      -0.0278
     10 C9          5.8599   68.0410   62.1722 C.3         1 E12       0.0189
     11 C10         4.3937   69.1062   64.5409 C.3         1 E12      -0.0032
     12 C13         5.9514   69.1623   64.4426 C.3         1 E12      -0.0041
     13 C63         3.0043   67.9051   68.0063 C.3         1 E12      -0.0126
     14 C29         4.0256   64.2935   65.1225 C.2         1 E12       0.1811
     15 C3          4.4283   68.3109   62.1752 C.2         1 E12       0.0883
     16 N30         4.8163   64.8702   66.0254 N.am        1 E12      -0.2230
     17 C31         4.8139   64.5137   67.3311 C.2         1 E12       0.0883
     18 C32         4.0011   63.5054   67.7492 C.2         1 E12       0.0225
     19 C33         3.1789   62.9064   66.8017 C.2         1 E12      -0.0779
     20 C34         3.1943   63.2856   65.5102 C.2         1 E12      -0.0278
     21 O35         4.0425   64.6943   63.9695 O.2         1 E12      -0.4310
     22 C36         5.7217   65.2382   68.2195 C.3         1 E12       0.0189
     23 C37         3.8383   63.1719   69.1803 C.3         1 E12      -0.0032
     24 C38         4.8936   63.8134   70.1361 C.3         1 E12      -0.0041
     25 C39         5.2563   65.2489   69.6946 C.3         1 E12      -0.0310
     26 N40         3.7903   61.6981   69.4535 N.4         1 E12       0.2346
     27 C41         2.4686   61.1116   69.8065 C.3         1 E12      -0.0329
     28 C64         1.8254   66.8768   67.9620 C.3         1 E12      -0.0483
     29 C65         0.6117   67.1936   68.8970 C.3         1 E12      -0.0529
     30 C66         0.7459   66.8024   70.4039 C.3         1 E12      -0.0531
     31 C67         1.2887   65.3630   70.6625 C.3         1 E12      -0.0531
     32 C68         0.7779   64.6471   71.9617 C.3         1 E12      -0.0531
     33 C69        -0.4570   63.7106   71.7937 C.3         1 E12      -0.0531
     34 C70        -0.3116   62.3717   70.9997 C.3         1 E12      -0.0529
     35 C71         0.5790   61.2513   71.6242 C.3         1 E12      -0.0483
     36 C72         2.1024   61.3075   71.3081 C.3         1 E12      -0.0126
     37 H1          4.3115   67.8896   60.2178 H           1 E12       0.2526
     38 H2          1.8385   69.2845   63.8892 H           1 E12       0.0600
     39 H3          6.2560   67.0543   64.0702 H           1 E12       0.0298
     40 H4          7.5835   68.0755   63.4970 H           1 E12       0.0298
     41 H5          4.7948   67.7952   66.0857 H           1 E12       0.2022
     42 H6          3.4278   67.4203   65.2534 H           1 E12       0.2022
     43 H7          2.1561   69.0691   66.3646 H           1 E12       0.0814
     44 H8          3.6365   69.7345   67.0634 H           1 E12       0.0814
     45 H9          0.7796   68.9635   61.8490 H           1 E12       0.0298
     46 H10         6.3528   68.8161   61.5805 H           1 E12       0.0511
     47 H11         6.0518   67.0798   61.6911 H           1 E12       0.0511
     48 H12         4.0979   70.1317   64.7815 H           1 E12       0.0913
     49 H13         6.4033   69.1226   65.4357 H           1 E12       0.0333
     50 H14         6.2567   70.1101   63.9846 H           1 E12       0.0333
     51 H15         2.8891   68.5604   68.8763 H           1 E12       0.0317
     52 H16         3.9501   67.3615   68.1394 H           1 E12       0.0317
     53 H17         5.4070   65.5834   65.7404 H           1 E12       0.2526
     54 H18         2.5770   62.1613   67.0613 H           1 E12       0.0600
     55 H19         2.6111   62.8279   64.8447 H           1 E12       0.0298
     56 H20         5.8157   66.2760   67.8871 H           1 E12       0.0511
     57 H21         6.7120   64.7730   68.1602 H           1 E12       0.0511
     58 H22         2.8805   63.6156   69.4535 H           1 E12       0.0913
     59 H23         5.8085   63.2093   70.1404 H           1 E12       0.0333
     60 H24         4.5096   63.8430   71.1616 H           1 E12       0.0333
     61 H25         4.3821   65.8987   69.8033 H           1 E12       0.0298
     62 H26         6.0548   65.6403   70.3307 H           1 E12       0.0298
     63 H27         4.1422   61.2067   68.6230 H           1 E12       0.2022
     64 H28         4.4275   61.4862   70.2281 H           1 E12       0.2022
     65 H29         1.6940   61.5394   69.1597 H           1 E12       0.0814
     66 H30         2.5036   60.0369   69.5954 H           1 E12       0.0814
     67 H31         2.2126   65.8854   68.2178 H           1 E12       0.0267
     68 H32         1.4379   66.8069   66.9381 H           1 E12       0.0267
     69 H33        -0.2679   66.6731   68.5006 H           1 E12       0.0265
     70 H34         0.3879   68.2663   68.8459 H           1 E12       0.0265
     71 H35        -0.2482   66.8972   70.8555 H           1 E12       0.0265
     72 H36         1.4086   67.5183   70.9052 H           1 E12       0.0265
     73 H37         2.3765   65.4532   70.7447 H           1 E12       0.0265
     74 H38         1.0744   64.7379   69.7960 H           1 E12       0.0265
     75 H39         0.5187   65.4069   72.7054 H           1 E12       0.0265
     76 H40         1.5879   64.0610   72.4017 H           1 E12       0.0265
     77 H41        -1.2377   64.2970   71.3040 H           1 E12       0.0265
     78 H42        -0.8284   63.4658   72.7988 H           1 E12       0.0265
     79 H43         0.0062   62.5675   69.9718 H           1 E12       0.0265
     80 H44        -1.3260   61.9593   70.9328 H           1 E12       0.0265
     81 H45         0.2069   60.2787   71.2786 H           1 E12       0.0267
     82 H46         0.4509   61.2705   72.7113 H           1 E12       0.0267
     83 H47         2.6071   60.5250   71.8864 H           1 E12       0.0317
     84 H48         2.4942   62.2566   71.6645 H           1 E12       0.0317
@<TRIPOS>BOND
     1     1     9   1
     2     1     3   2
     3     1     2  am
     4     2    15   1
     5    15    10   1
     6    15     4   2
     7     4    11   1
     8     4     5   1
     9     5     9   2
    10    11     7   1
    11    11    12   1
    12    12     6   1
    13     6    10   1
    14     7     8   1
    15     8    13   1
    16    13    28   1
    17    28    29   1
    18    29    30   1
    19    30    31   1
    20    31    32   1
    21    32    33   1
    22    33    34   1
    23    34    35   1
    24    35    36   1
    25    36    27   1
    26    27    26   1
    27    26    23   1
    28    23    24   1
    29    23    18   1
    30    18    19   1
    31    18    17   2
    32    17    22   1
    33    17    16   1
    34    16    14  am
    35    14    20   1
    36    14    21   2
    37    20    19   2
    38    22    25   1
    39    25    24   1
    40     2    37   1
    41     5    38   1
    42     6    39   1
    43     6    40   1
    44     7    41   1
    45     7    42   1
    46     8    43   1
    47     8    44   1
    48     9    45   1
    49    10    46   1
    50    10    47   1
    51    11    48   1
    52    12    49   1
    53    12    50   1
    54    13    51   1
    55    13    52   1
    56    16    53   1
    57    19    54   1
    58    20    55   1
    59    22    56   1
    60    22    57   1
    61    23    58   1
    62    24    59   1
    63    24    60   1
    64    25    61   1
    65    25    62   1
    66    26    63   1
    67    26    64   1
    68    27    65   1
    69    27    66   1
    70    28    67   1
    71    28    68   1
    72    29    69   1
    73    29    70   1
    74    30    71   1
    75    30    72   1
    76    31    73   1
    77    31    74   1
    78    32    75   1
    79    32    76   1
    80    33    77   1
    81    33    78   1
    82    34    79   1
    83    34    80   1
    84    35    81   1
    85    35    82   1
    86    36    83   1
    87    36    84   1
@<TRIPOS>SUBSTRUCTURE
     1  E12      1

