@<TRIPOS>MOLECULE
1h23_ligand_021
    84    87
SMALL
GAST_HUCK
****
This file was generated by PARSER (from files_GN.cpp)

@<TRIPOS>ATOM
      1 C1          0.6347   53.0768   73.9101 C.2         1 E12       0.1811
      2 N2         -0.1774   54.0817   73.5920 N.am        1 E12      -0.2230
      3 O7          0.2532   51.9231   73.7700 O.2         1 E12      -0.4310
      4 C4          1.4055   55.6908   74.2264 C.2         1 E12       0.0225
      5 C5          2.2591   54.6463   74.5344 C.2         1 E12      -0.0779
      6 C14        -0.4201   57.8614   73.4730 C.3         1 E12      -0.0310
      7 N17         2.9570   57.4736   73.4527 N.4         1 E12       0.2346
      8 C24         2.8452   57.1336   72.0124 C.3         1 E12      -0.0329
      9 C6          1.8802   53.3580   74.3916 C.2         1 E12      -0.0278
     10 C9         -0.8477   56.3696   73.4232 C.3         1 E12       0.0189
     11 C10         1.8689   57.0801   74.4053 C.3         1 E12      -0.0032
     12 C13         0.7108   58.1203   74.4949 C.3         1 E12      -0.0041
     13 C63         4.0072   57.7501   71.1696 C.3         1 E12      -0.0126
     14 C29         2.3710   68.2165   60.9615 C.2         1 E12       0.1811
     15 C3          0.1700   55.3830   73.7457 C.2         1 E12       0.0883
     16 N30         3.6939   68.0830   61.0442 N.am        1 E12      -0.2230
     17 C31         4.3707   68.2553   62.1990 C.2         1 E12       0.0883
     18 C32         3.6982   68.6264   63.3259 C.2         1 E12       0.0225
     19 C33         2.3193   68.7451   63.2401 C.2         1 E12      -0.0779
     20 C34         1.6598   68.5401   62.0783 C.2         1 E12      -0.0278
     21 O35         1.8208   68.0675   59.8810 O.2         1 E12      -0.4310
     22 C36         5.8214   68.1228   62.1236 C.3         1 E12       0.0189
     23 C37         4.3811   68.9799   64.5855 C.3         1 E12      -0.0032
     24 C38         5.9435   69.0455   64.4819 C.3         1 E12      -0.0041
     25 C39         6.5156   68.0044   63.4969 C.3         1 E12      -0.0310
     26 N40         3.9112   68.2143   65.7839 N.4         1 E12       0.2346
     27 C41         4.1126   66.7459   65.8620 C.3         1 E12      -0.0329
     28 C64         3.5841   58.9249   70.2283 C.3         1 E12      -0.0483
     29 C65         3.6779   60.3382   70.8689 C.3         1 E12      -0.0529
     30 C66         2.9995   61.4366   69.9838 C.3         1 E12      -0.0531
     31 C67         3.3195   62.9066   70.3928 C.3         1 E12      -0.0531
     32 C68         4.6543   63.4545   69.7903 C.3         1 E12      -0.0531
     33 C69         5.0444   64.8908   70.2497 C.3         1 E12      -0.0531
     34 C70         4.1047   66.0745   69.8367 C.3         1 E12      -0.0529
     35 C71         4.4008   66.7514   68.4528 C.3         1 E12      -0.0483
     36 C72         3.6357   66.1589   67.2270 C.3         1 E12      -0.0126
     37 H1         -1.0548   53.8714   73.2380 H           1 E12       0.2526
     38 H2          3.1730   54.8340   74.8790 H           1 E12       0.0600
     39 H3         -0.0758   58.1800   72.4891 H           1 E12       0.0298
     40 H4         -1.2815   58.4836   73.7253 H           1 E12       0.0298
     41 H5          3.8184   57.0050   73.7649 H           1 E12       0.2022
     42 H6          3.0984   58.4872   73.5374 H           1 E12       0.2022
     43 H7          1.8766   57.4528   71.6173 H           1 E12       0.0814
     44 H8          2.8996   56.0408   71.9110 H           1 E12       0.0814
     45 H9          2.5092   52.6188   74.6279 H           1 E12       0.0298
     46 H10        -1.6732   56.2210   74.1228 H           1 E12       0.0511
     47 H11        -1.2194   56.1586   72.4212 H           1 E12       0.0511
     48 H12         2.3555   57.1315   75.3843 H           1 E12       0.0913
     49 H13         1.1042   59.1305   74.3564 H           1 E12       0.0333
     50 H14         0.2776   58.0771   75.4999 H           1 E12       0.0333
     51 H15         4.4168   56.9651   70.5274 H           1 E12       0.0317
     52 H16         4.8286   58.0826   71.8210 H           1 E12       0.0317
     53 H17         4.2010   67.8725   60.2409 H           1 E12       0.2526
     54 H18         1.7892   69.0004   64.0446 H           1 E12       0.0600
     55 H19         0.6703   68.6286   62.0449 H           1 E12       0.0298
     56 H20         6.2167   68.9934   61.5930 H           1 E12       0.0511
     57 H21         6.0752   67.2295   61.5456 H           1 E12       0.0511
     58 H22         4.0822   70.0111   64.8031 H           1 E12       0.0913
     59 H23         6.3995   68.9019   65.4592 H           1 E12       0.0333
     60 H24         6.2441   70.0380   64.1232 H           1 E12       0.0333
     61 H25         7.5918   68.1589   63.3735 H           1 E12       0.0298
     62 H26         6.3694   66.9947   63.8844 H           1 E12       0.0298
     63 H27         4.3818   68.6360   66.5901 H           1 E12       0.2022
     64 H28         2.9097   68.3975   65.8838 H           1 E12       0.2022
     65 H29         3.5467   66.2716   65.0511 H           1 E12       0.0814
     66 H30         5.1738   66.5058   65.7394 H           1 E12       0.0814
     67 H31         2.5576   58.7668   69.8608 H           1 E12       0.0267
     68 H32         4.2394   58.9287   69.3429 H           1 E12       0.0267
     69 H33         4.7425   60.5885   71.0089 H           1 E12       0.0265
     70 H34         3.1956   60.3344   71.8574 H           1 E12       0.0265
     71 H35         1.9119   61.2996   70.0587 H           1 E12       0.0265
     72 H36         3.2785   61.2906   68.9339 H           1 E12       0.0265
     73 H37         3.3622   62.9798   71.4876 H           1 E12       0.0265
     74 H38         2.4961   63.5346   70.0338 H           1 E12       0.0265
     75 H39         4.5914   63.4444   68.6941 H           1 E12       0.0265
     76 H40         5.4666   62.7798   70.0877 H           1 E12       0.0265
     77 H41         6.0579   65.1005   69.8825 H           1 E12       0.0265
     78 H42         5.1105   64.8788   71.3420 H           1 E12       0.0265
     79 H43         4.2294   66.8587   70.5958 H           1 E12       0.0265
     80 H44         3.0459   65.7714   69.8791 H           1 E12       0.0265
     81 H45         5.4766   66.7210   68.2509 H           1 E12       0.0267
     82 H46         4.1053   67.8039   68.5266 H           1 E12       0.0267
     83 H47         2.5559   66.3461   67.3362 H           1 E12       0.0317
     84 H48         3.7916   65.0798   67.1878 H           1 E12       0.0317
@<TRIPOS>BOND
     1     1     9   1
     2     1     3   2
     3     1     2  am
     4     2    15   1
     5    15    10   1
     6    15     4   2
     7     4    11   1
     8     4     5   1
     9     5     9   2
    10    11     7   1
    11    11    12   1
    12    12     6   1
    13     6    10   1
    14     7     8   1
    15     8    13   1
    16    13    28   1
    17    28    29   1
    18    29    30   1
    19    30    31   1
    20    31    32   1
    21    32    33   1
    22    33    34   1
    23    34    35   1
    24    35    36   1
    25    36    27   1
    26    27    26   1
    27    26    23   1
    28    23    24   1
    29    23    18   1
    30    18    19   1
    31    18    17   2
    32    17    22   1
    33    17    16   1
    34    16    14  am
    35    14    20   1
    36    14    21   2
    37    20    19   2
    38    22    25   1
    39    25    24   1
    40     2    37   1
    41     5    38   1
    42     6    39   1
    43     6    40   1
    44     7    41   1
    45     7    42   1
    46     8    43   1
    47     8    44   1
    48     9    45   1
    49    10    46   1
    50    10    47   1
    51    11    48   1
    52    12    49   1
    53    12    50   1
    54    13    51   1
    55    13    52   1
    56    16    53   1
    57    19    54   1
    58    20    55   1
    59    22    56   1
    60    22    57   1
    61    23    58   1
    62    24    59   1
    63    24    60   1
    64    25    61   1
    65    25    62   1
    66    26    63   1
    67    26    64   1
    68    27    65   1
    69    27    66   1
    70    28    67   1
    71    28    68   1
    72    29    69   1
    73    29    70   1
    74    30    71   1
    75    30    72   1
    76    31    73   1
    77    31    74   1
    78    32    75   1
    79    32    76   1
    80    33    77   1
    81    33    78   1
    82    34    79   1
    83    34    80   1
    84    35    81   1
    85    35    82   1
    86    36    83   1
    87    36    84   1
@<TRIPOS>SUBSTRUCTURE
     1  E12      1

