@<TRIPOS>MOLECULE
1h23_ligand_090
    84    87
SMALL
GAST_HUCK
****
This file was generated by PARSER (from files_GN.cpp)

@<TRIPOS>ATOM
      1 C1         -2.5324   52.8900   75.2747 C.2         1 E12       0.1811
      2 N2         -3.1291   54.0658   75.4440 N.am        1 E12      -0.2230
      3 O7         -3.1729   51.8621   75.4348 O.2         1 E12      -0.4310
      4 C4         -1.1671   55.2452   74.9077 C.2         1 E12       0.0225
      5 C5         -0.5371   54.0168   74.7917 C.2         1 E12      -0.0779
      6 C14        -2.3134   57.6749   75.9148 C.3         1 E12      -0.0310
      7 N17         0.1441   56.3987   73.2334 N.4         1 E12       0.2346
      8 C24         0.9215   57.5224   72.6629 C.3         1 E12      -0.0329
      9 C6         -1.2023   52.8527   74.9640 C.2         1 E12      -0.0278
     10 C9         -3.2114   56.4405   75.6697 C.3         1 E12       0.0189
     11 C10        -0.4266   56.4927   74.6151 C.3         1 E12      -0.0032
     12 C13        -1.2797   57.7918   74.7797 C.3         1 E12      -0.0041
     13 C63         2.3328   57.7381   73.2693 C.3         1 E12      -0.0126
     14 C29         2.3383   68.3088   61.0222 C.2         1 E12       0.1811
     15 C3         -2.4657   55.2401   75.3229 C.2         1 E12       0.0883
     16 N30         3.6638   68.2093   61.0276 N.am        1 E12      -0.2230
     17 C31         4.3871   68.2547   62.1647 C.2         1 E12       0.0883
     18 C32         3.7642   68.3194   63.3772 C.2         1 E12       0.0225
     19 C33         2.3868   68.4933   63.3595 C.2         1 E12      -0.0779
     20 C34         1.6785   68.4781   62.2070 C.2         1 E12      -0.0278
     21 O35         1.7456   68.2441   59.9547 O.2         1 E12      -0.4310
     22 C36         5.8266   68.2353   61.9840 C.3         1 E12       0.0189
     23 C37         4.4996   68.2846   64.6602 C.3         1 E12      -0.0032
     24 C38         6.0480   68.0906   64.4890 C.3         1 E12      -0.0041
     25 C39         6.6029   68.7401   63.2123 C.3         1 E12      -0.0310
     26 N40         3.9693   67.2071   65.5565 N.4         1 E12       0.2346
     27 C41         4.3685   67.2872   66.9888 C.3         1 E12      -0.0329
     28 C64         3.0051   58.9983   72.6580 C.3         1 E12      -0.0483
     29 C65         4.5108   59.1673   73.0124 C.3         1 E12      -0.0529
     30 C66         5.0281   60.6264   72.8453 C.3         1 E12      -0.0531
     31 C67         4.9524   61.2630   71.4140 C.3         1 E12      -0.0531
     32 C68         4.7995   62.8093   71.4762 C.3         1 E12      -0.0531
     33 C69         4.8693   63.5762   70.1226 C.3         1 E12      -0.0531
     34 C70         4.2334   64.9978   70.2466 C.3         1 E12      -0.0529
     35 C71         4.6892   66.0663   69.2185 C.3         1 E12      -0.0483
     36 C72         4.0406   66.0073   67.8034 C.3         1 E12      -0.0126
     37 H1         -4.0770   54.0818   75.6694 H           1 E12       0.2526
     38 H2          0.4364   53.9722   74.5897 H           1 E12       0.0600
     39 H3         -2.9255   58.5788   75.9545 H           1 E12       0.0298
     40 H4         -1.7904   57.5721   76.8679 H           1 E12       0.0298
     41 H5         -0.6431   56.2361   72.5981 H           1 E12       0.2022
     42 H6          0.7460   55.5732   73.1880 H           1 E12       0.2022
     43 H7          0.3475   58.4501   72.7221 H           1 E12       0.0814
     44 H8          1.0564   57.2969   71.6014 H           1 E12       0.0814
     45 H9         -0.7230   51.9825   74.8832 H           1 E12       0.0298
     46 H10        -3.7881   56.2640   76.5844 H           1 E12       0.0511
     47 H11        -3.9206   56.6521   74.8662 H           1 E12       0.0511
     48 H12         0.4025   56.5423   75.3233 H           1 E12       0.0913
     49 H13        -1.8208   57.9989   73.8512 H           1 E12       0.0333
     50 H14        -0.6252   58.6443   74.9834 H           1 E12       0.0333
     51 H15         2.9421   56.8515   73.0685 H           1 E12       0.0317
     52 H16         2.2568   57.8603   74.3535 H           1 E12       0.0317
     53 H17         4.1415   68.1046   60.1856 H           1 E12       0.2526
     54 H18         1.8979   68.6646   64.2096 H           1 E12       0.0600
     55 H19         0.6905   68.6227   62.2204 H           1 E12       0.0298
     56 H20         6.1008   68.8850   61.1465 H           1 E12       0.0511
     57 H21         6.1351   67.2121   61.7424 H           1 E12       0.0511
     58 H22         4.3318   69.2552   65.1333 H           1 E12       0.0913
     59 H23         6.2838   67.0219   64.4568 H           1 E12       0.0333
     60 H24         6.5765   68.5277   65.3366 H           1 E12       0.0333
     61 H25         6.5200   69.8286   63.2885 H           1 E12       0.0298
     62 H26         7.6539   68.4764   63.0973 H           1 E12       0.0298
     63 H27         2.9484   67.2322   65.5270 H           1 E12       0.2022
     64 H28         4.2702   66.3062   65.1781 H           1 E12       0.2022
     65 H29         5.4417   67.4611   67.0708 H           1 E12       0.0814
     66 H30         3.8506   68.1413   67.4343 H           1 E12       0.0814
     67 H31         2.4498   59.8746   73.0040 H           1 E12       0.0267
     68 H32         2.9264   58.9495   71.5695 H           1 E12       0.0267
     69 H33         5.1056   58.4836   72.4027 H           1 E12       0.0265
     70 H34         4.6555   58.8863   74.0588 H           1 E12       0.0265
     71 H35         6.0737   60.6578   73.1744 H           1 E12       0.0265
     72 H36         4.4597   61.2418   73.5512 H           1 E12       0.0265
     73 H37         4.1011   60.8638   70.8619 H           1 E12       0.0265
     74 H38         5.8586   61.0054   70.8562 H           1 E12       0.0265
     75 H39         5.5776   63.2084   72.1320 H           1 E12       0.0265
     76 H40         3.8293   63.0131   71.9418 H           1 E12       0.0265
     77 H41         4.3461   63.0199   69.3382 H           1 E12       0.0265
     78 H42         5.9208   63.6678   69.8355 H           1 E12       0.0265
     79 H43         4.4981   65.3996   71.2273 H           1 E12       0.0265
     80 H44         3.1461   64.9133   70.2250 H           1 E12       0.0265
     81 H45         5.7753   66.0209   69.1146 H           1 E12       0.0267
     82 H46         4.4457   67.0482   69.6450 H           1 E12       0.0267
     83 H47         2.9522   65.9266   67.8992 H           1 E12       0.0317
     84 H48         4.4060   65.1191   67.2745 H           1 E12       0.0317
@<TRIPOS>BOND
     1     1     9   1
     2     1     3   2
     3     1     2  am
     4     2    15   1
     5    15    10   1
     6    15     4   2
     7     4    11   1
     8     4     5   1
     9     5     9   2
    10    11     7   1
    11    11    12   1
    12    12     6   1
    13     6    10   1
    14     7     8   1
    15     8    13   1
    16    13    28   1
    17    28    29   1
    18    29    30   1
    19    30    31   1
    20    31    32   1
    21    32    33   1
    22    33    34   1
    23    34    35   1
    24    35    36   1
    25    36    27   1
    26    27    26   1
    27    26    23   1
    28    23    24   1
    29    23    18   1
    30    18    19   1
    31    18    17   2
    32    17    22   1
    33    17    16   1
    34    16    14  am
    35    14    20   1
    36    14    21   2
    37    20    19   2
    38    22    25   1
    39    25    24   1
    40     2    37   1
    41     5    38   1
    42     6    39   1
    43     6    40   1
    44     7    41   1
    45     7    42   1
    46     8    43   1
    47     8    44   1
    48     9    45   1
    49    10    46   1
    50    10    47   1
    51    11    48   1
    52    12    49   1
    53    12    50   1
    54    13    51   1
    55    13    52   1
    56    16    53   1
    57    19    54   1
    58    20    55   1
    59    22    56   1
    60    22    57   1
    61    23    58   1
    62    24    59   1
    63    24    60   1
    64    25    61   1
    65    25    62   1
    66    26    63   1
    67    26    64   1
    68    27    65   1
    69    27    66   1
    70    28    67   1
    71    28    68   1
    72    29    69   1
    73    29    70   1
    74    30    71   1
    75    30    72   1
    76    31    73   1
    77    31    74   1
    78    32    75   1
    79    32    76   1
    80    33    77   1
    81    33    78   1
    82    34    79   1
    83    34    80   1
    84    35    81   1
    85    35    82   1
    86    36    83   1
    87    36    84   1
@<TRIPOS>SUBSTRUCTURE
     1  E12      1

