@<TRIPOS>MOLECULE
1h23_ligand_061
    84    87
SMALL
GAST_HUCK
****
This file was generated by PARSER (from files_GN.cpp)

@<TRIPOS>ATOM
      1 C1          4.1536   57.4077   71.0294 C.2         1 E12       0.1811
      2 N2          3.4822   58.0674   70.0914 N.am        1 E12      -0.2230
      3 O7          4.2538   56.1928   70.9424 O.2         1 E12      -0.4310
      4 C4          3.9453   60.1397   71.0861 C.2         1 E12       0.0225
      5 C5          4.5956   59.4435   72.0906 C.2         1 E12      -0.0779
      6 C14         1.8742   61.3244   69.4886 C.3         1 E12      -0.0310
      7 N17         5.1905   62.2250   71.2166 N.4         1 E12       0.2346
      8 C24         5.2854   63.7139   71.1519 C.3         1 E12      -0.0329
      9 C6          4.6995   58.1004   72.0657 C.2         1 E12      -0.0278
     10 C9          2.5664   60.0175   69.0371 C.3         1 E12       0.0189
     11 C10         3.8243   61.6133   71.1718 C.3         1 E12      -0.0032
     12 C13         2.9713   62.2707   70.0312 C.3         1 E12      -0.0041
     13 C63         5.4956   64.2727   69.7054 C.3         1 E12      -0.0126
     14 C29         2.5270   68.5244   60.7775 C.2         1 E12       0.1811
     15 C3          3.3488   59.4104   70.1018 C.2         1 E12       0.0883
     16 N30         3.8386   68.3283   60.8921 N.am        1 E12      -0.2230
     17 C31         4.5042   68.5305   62.0517 C.2         1 E12       0.0883
     18 C32         3.8280   69.0011   63.1359 C.2         1 E12       0.0225
     19 C33         2.4713   69.2411   63.0010 C.2         1 E12      -0.0779
     20 C34         1.8196   68.9875   61.8458 C.2         1 E12      -0.0278
     21 O35         1.9770   68.2926   59.7124 O.2         1 E12      -0.4310
     22 C36         5.9249   68.2157   62.0536 C.3         1 E12       0.0189
     23 C37         4.4659   69.1534   64.4578 C.3         1 E12      -0.0032
     24 C38         6.0225   69.0593   64.4484 C.3         1 E12      -0.0041
     25 C39         6.5295   67.9904   63.4594 C.3         1 E12      -0.0310
     26 N40         3.8444   68.2682   65.4847 N.4         1 E12       0.2346
     27 C41         3.6583   66.8242   65.1970 C.3         1 E12      -0.0329
     28 C64         4.5230   65.3781   69.2095 C.3         1 E12      -0.0483
     29 C65         4.0929   66.4317   70.2710 C.3         1 E12      -0.0529
     30 C66         3.3089   67.6345   69.6735 C.3         1 E12      -0.0531
     31 C67         1.7703   67.4122   69.5445 C.3         1 E12      -0.0531
     32 C68         1.0939   68.4656   68.6107 C.3         1 E12      -0.0531
     33 C69        -0.0080   67.9224   67.6429 C.3         1 E12      -0.0531
     34 C70         0.3693   67.8484   66.1272 C.3         1 E12      -0.0529
     35 C71         1.0532   66.5454   65.6056 C.3         1 E12      -0.0483
     36 C72         2.5123   66.2093   66.0391 C.3         1 E12      -0.0126
     37 H1          3.0687   57.5674   69.3721 H           1 E12       0.2526
     38 H2          4.9737   59.9314   72.8746 H           1 E12       0.0600
     39 H3          1.3685   61.7877   68.6374 H           1 E12       0.0298
     40 H4          1.1301   61.1175   70.2671 H           1 E12       0.0298
     41 H5          5.7499   61.8271   70.4560 H           1 E12       0.2022
     42 H6          5.6378   61.9520   72.0968 H           1 E12       0.2022
     43 H7          6.1612   63.9985   71.7535 H           1 E12       0.0814
     44 H8          4.4137   64.1768   71.6204 H           1 E12       0.0814
     45 H9          5.1373   57.6234   72.8139 H           1 E12       0.0298
     46 H10         1.8088   59.3252   68.6699 H           1 E12       0.0511
     47 H11         3.2365   60.2450   68.2054 H           1 E12       0.0511
     48 H12         3.3300   61.8356   72.1267 H           1 E12       0.0913
     49 H13         3.6341   62.5536   69.1962 H           1 E12       0.0333
     50 H14         2.4896   63.1753   70.4137 H           1 E12       0.0333
     51 H15         5.3965   63.4441   68.9948 H           1 E12       0.0317
     52 H16         6.5170   64.6663   69.6147 H           1 E12       0.0317
     53 H17         4.3437   68.0166   60.1241 H           1 E12       0.2526
     54 H18         1.9504   69.6012   63.7666 H           1 E12       0.0600
     55 H19         0.8412   69.1548   61.7787 H           1 E12       0.0298
     56 H20         6.4532   69.0367   61.5638 H           1 E12       0.0511
     57 H21         6.1067   67.3056   61.4760 H           1 E12       0.0511
     58 H22         4.2442   70.1652   64.8075 H           1 E12       0.0913
     59 H23         6.3940   68.8344   65.4501 H           1 E12       0.0333
     60 H24         6.4372   70.0282   64.1518 H           1 E12       0.0333
     61 H25         7.6191   68.0338   63.4018 H           1 E12       0.0298
     62 H26         6.2521   66.9986   63.8200 H           1 E12       0.0298
     63 H27         4.3907   68.3472   66.3473 H           1 E12       0.2022
     64 H28         2.9305   68.6668   65.6770 H           1 E12       0.2022
     65 H29         3.4505   66.6344   64.1419 H           1 E12       0.0814
     66 H30         4.5843   66.3070   65.4581 H           1 E12       0.0814
     67 H31         3.6289   64.9148   68.7935 H           1 E12       0.0267
     68 H32         5.0325   65.9000   68.3896 H           1 E12       0.0267
     69 H33         4.9951   66.8187   70.7531 H           1 E12       0.0265
     70 H34         3.4756   65.9597   71.0403 H           1 E12       0.0265
     71 H35         3.7371   67.8689   68.6924 H           1 E12       0.0265
     72 H36         3.4689   68.5072   70.3154 H           1 E12       0.0265
     73 H37         1.3254   67.4746   70.5436 H           1 E12       0.0265
     74 H38         1.5675   66.4021   69.1867 H           1 E12       0.0265
     75 H39         1.8437   69.0015   68.0194 H           1 E12       0.0265
     76 H40         0.6396   69.2201   69.2619 H           1 E12       0.0265
     77 H41        -0.8544   68.6149   67.7162 H           1 E12       0.0265
     78 H42        -0.3782   66.9525   67.9838 H           1 E12       0.0265
     79 H43         0.9484   68.7281   65.8522 H           1 E12       0.0265
     80 H44        -0.5684   67.9383   65.5670 H           1 E12       0.0265
     81 H45         1.0243   66.5673   64.5114 H           1 E12       0.0267
     82 H46         0.4145   65.7128   65.9107 H           1 E12       0.0267
     83 H47         2.6267   65.1218   65.9828 H           1 E12       0.0317
     84 H48         2.6709   66.4909   67.0708 H           1 E12       0.0317
@<TRIPOS>BOND
     1     1     9   1
     2     1     3   2
     3     1     2  am
     4     2    15   1
     5    15    10   1
     6    15     4   2
     7     4    11   1
     8     4     5   1
     9     5     9   2
    10    11     7   1
    11    11    12   1
    12    12     6   1
    13     6    10   1
    14     7     8   1
    15     8    13   1
    16    13    28   1
    17    28    29   1
    18    29    30   1
    19    30    31   1
    20    31    32   1
    21    32    33   1
    22    33    34   1
    23    34    35   1
    24    35    36   1
    25    36    27   1
    26    27    26   1
    27    26    23   1
    28    23    24   1
    29    23    18   1
    30    18    19   1
    31    18    17   2
    32    17    22   1
    33    17    16   1
    34    16    14  am
    35    14    20   1
    36    14    21   2
    37    20    19   2
    38    22    25   1
    39    25    24   1
    40     2    37   1
    41     5    38   1
    42     6    39   1
    43     6    40   1
    44     7    41   1
    45     7    42   1
    46     8    43   1
    47     8    44   1
    48     9    45   1
    49    10    46   1
    50    10    47   1
    51    11    48   1
    52    12    49   1
    53    12    50   1
    54    13    51   1
    55    13    52   1
    56    16    53   1
    57    19    54   1
    58    20    55   1
    59    22    56   1
    60    22    57   1
    61    23    58   1
    62    24    59   1
    63    24    60   1
    64    25    61   1
    65    25    62   1
    66    26    63   1
    67    26    64   1
    68    27    65   1
    69    27    66   1
    70    28    67   1
    71    28    68   1
    72    29    69   1
    73    29    70   1
    74    30    71   1
    75    30    72   1
    76    31    73   1
    77    31    74   1
    78    32    75   1
    79    32    76   1
    80    33    77   1
    81    33    78   1
    82    34    79   1
    83    34    80   1
    84    35    81   1
    85    35    82   1
    86    36    83   1
    87    36    84   1
@<TRIPOS>SUBSTRUCTURE
     1  E12      1

