@<TRIPOS>MOLECULE
1h23_ligand_016
    84    87
SMALL
GAST_HUCK
****
This file was generated by PARSER (from files_GN.cpp)

@<TRIPOS>ATOM
      1 C1          4.8145   59.6548   72.3395 C.2         1 E12       0.1811
      2 N2          4.3971   58.5174   72.8984 N.am        1 E12      -0.2230
      3 O7          5.5985   59.6140   71.4020 O.2         1 E12      -0.4310
      4 C4          3.0035   59.6628   74.3968 C.2         1 E12       0.0225
      5 C5          3.4727   60.8420   73.8426 C.2         1 E12      -0.0779
      6 C14         1.8154   57.1455   75.2463 C.3         1 E12      -0.0310
      7 N17         0.7245   60.3694   74.9696 N.4         1 E12       0.2346
      8 C24        -0.0602   59.7571   73.8673 C.3         1 E12      -0.0329
      9 C6          4.3586   60.8442   72.8267 C.2         1 E12      -0.0278
     10 C9          3.1283   57.1771   74.4252 C.3         1 E12       0.0189
     11 C10         1.9774   59.7163   75.4515 C.3         1 E12      -0.0032
     12 C13         1.7249   58.3650   76.1921 C.3         1 E12      -0.0041
     13 C63        -0.9697   60.8050   73.1703 C.3         1 E12      -0.0126
     14 C29         2.6034   68.4989   60.5767 C.2         1 E12       0.1811
     15 C3          3.4918   58.4898   73.9040 C.2         1 E12       0.0883
     16 N30         3.8584   68.2368   60.9331 N.am        1 E12      -0.2230
     17 C31         4.2893   68.3455   62.2138 C.2         1 E12       0.0883
     18 C32         3.4336   68.8103   63.1690 C.2         1 E12       0.0225
     19 C33         2.1724   69.2093   62.7587 C.2         1 E12      -0.0779
     20 C34         1.7313   68.9898   61.5032 C.2         1 E12      -0.0278
     21 O35         2.2580   68.3413   59.4177 O.2         1 E12      -0.4310
     22 C36         5.6819   67.9939   62.4652 C.3         1 E12       0.0189
     23 C37         3.7816   68.8260   64.6065 C.3         1 E12      -0.0032
     24 C38         5.3207   68.8198   64.8451 C.3         1 E12      -0.0041
     25 C39         6.0202   67.7641   63.9586 C.3         1 E12      -0.0310
     26 N40         3.1755   67.6950   65.3782 N.4         1 E12       0.2346
     27 C41         1.6952   67.5767   65.3763 C.3         1 E12      -0.0329
     28 C64        -0.2867   61.5339   71.9803 C.3         1 E12      -0.0483
     29 C65        -1.1413   62.7022   71.4128 C.3         1 E12      -0.0529
     30 C66        -0.5342   63.3673   70.1433 C.3         1 E12      -0.0531
     31 C67         0.5617   64.4528   70.4038 C.3         1 E12      -0.0531
     32 C68         0.0692   65.9386   70.3576 C.3         1 E12      -0.0531
     33 C69         1.0811   66.9613   69.7288 C.3         1 E12      -0.0531
     34 C70         0.4835   67.8945   68.6316 C.3         1 E12      -0.0529
     35 C71        -0.0019   67.1857   67.3326 C.3         1 E12      -0.0483
     36 C72         1.1296   66.5870   66.4437 C.3         1 E12      -0.0126
     37 H1          4.7495   57.6720   72.5720 H           1 E12       0.2526
     38 H2          3.1571   61.7179   74.1934 H           1 E12       0.0600
     39 H3          0.9614   57.1421   74.5668 H           1 E12       0.0298
     40 H4          1.7730   56.2236   75.8328 H           1 E12       0.0298
     41 H5          0.9735   61.3168   74.6782 H           1 E12       0.2022
     42 H6          0.0972   60.4559   75.7727 H           1 E12       0.2022
     43 H7         -0.6914   58.9768   74.2966 H           1 E12       0.0814
     44 H8          0.5922   59.2908   73.1245 H           1 E12       0.0814
     45 H9          4.6754   61.7063   72.4417 H           1 E12       0.0298
     46 H10         3.9527   56.8246   75.0508 H           1 E12       0.0511
     47 H11         3.0166   56.4729   73.5959 H           1 E12       0.0511
     48 H12         2.3600   60.3931   76.2234 H           1 E12       0.0913
     49 H13         0.7495   58.3776   76.6845 H           1 E12       0.0333
     50 H14         2.4813   58.2384   76.9742 H           1 E12       0.0333
     51 H15        -1.3006   61.5443   73.9049 H           1 E12       0.0317
     52 H16        -1.8617   60.2961   72.7912 H           1 E12       0.0317
     53 H17         4.4757   67.9243   60.2515 H           1 E12       0.2526
     54 H18         1.5681   69.6631   63.4045 H           1 E12       0.0600
     55 H19         0.7963   69.2226   61.2517 H           1 E12       0.0298
     56 H20         6.3055   68.8040   62.0770 H           1 E12       0.0511
     57 H21         5.9392   67.0844   61.9125 H           1 E12       0.0511
     58 H22         3.4260   69.7625   65.0446 H           1 E12       0.0913
     59 H23         5.5392   68.6066   65.8943 H           1 E12       0.0333
     60 H24         5.7334   69.8070   64.6144 H           1 E12       0.0333
     61 H25         7.0999   67.8266   64.1019 H           1 E12       0.0298
     62 H26         5.6956   66.7632   64.2567 H           1 E12       0.0298
     63 H27         3.5781   66.8169   65.0383 H           1 E12       0.2022
     64 H28         3.4695   67.8121   66.3513 H           1 E12       0.2022
     65 H29         1.2689   68.5726   65.5248 H           1 E12       0.0814
     66 H30         1.3851   67.2360   64.3850 H           1 E12       0.0814
     67 H31        -0.1191   60.7990   71.1857 H           1 E12       0.0267
     68 H32         0.6870   61.9198   72.2923 H           1 E12       0.0267
     69 H33        -1.2865   63.4599   72.1873 H           1 E12       0.0265
     70 H34        -2.1302   62.3118   71.1467 H           1 E12       0.0265
     71 H35        -1.3462   63.8028   69.5545 H           1 E12       0.0265
     72 H36        -0.1081   62.5820   69.5107 H           1 E12       0.0265
     73 H37         1.3359   64.3061   69.6474 H           1 E12       0.0265
     74 H38         1.0407   64.2758   71.3713 H           1 E12       0.0265
     75 H39        -0.1652   66.2596   71.3769 H           1 E12       0.0265
     76 H40        -0.8776   65.9931   69.8211 H           1 E12       0.0265
     77 H41         1.9504   66.4545   69.3101 H           1 E12       0.0265
     78 H42         1.4747   67.6001   70.5239 H           1 E12       0.0265
     79 H43         1.2312   68.6442   68.3562 H           1 E12       0.0265
     80 H44        -0.3619   68.4336   69.0670 H           1 E12       0.0265
     81 H45        -0.5765   67.9022   66.7393 H           1 E12       0.0267
     82 H46        -0.7074   66.3937   67.5899 H           1 E12       0.0267
     83 H47         0.7158   65.7223   65.9197 H           1 E12       0.0317
     84 H48         1.9351   66.1973   67.0669 H           1 E12       0.0317
@<TRIPOS>BOND
     1     1     9   1
     2     1     3   2
     3     1     2  am
     4     2    15   1
     5    15    10   1
     6    15     4   2
     7     4    11   1
     8     4     5   1
     9     5     9   2
    10    11     7   1
    11    11    12   1
    12    12     6   1
    13     6    10   1
    14     7     8   1
    15     8    13   1
    16    13    28   1
    17    28    29   1
    18    29    30   1
    19    30    31   1
    20    31    32   1
    21    32    33   1
    22    33    34   1
    23    34    35   1
    24    35    36   1
    25    36    27   1
    26    27    26   1
    27    26    23   1
    28    23    24   1
    29    23    18   1
    30    18    19   1
    31    18    17   2
    32    17    22   1
    33    17    16   1
    34    16    14  am
    35    14    20   1
    36    14    21   2
    37    20    19   2
    38    22    25   1
    39    25    24   1
    40     2    37   1
    41     5    38   1
    42     6    39   1
    43     6    40   1
    44     7    41   1
    45     7    42   1
    46     8    43   1
    47     8    44   1
    48     9    45   1
    49    10    46   1
    50    10    47   1
    51    11    48   1
    52    12    49   1
    53    12    50   1
    54    13    51   1
    55    13    52   1
    56    16    53   1
    57    19    54   1
    58    20    55   1
    59    22    56   1
    60    22    57   1
    61    23    58   1
    62    24    59   1
    63    24    60   1
    64    25    61   1
    65    25    62   1
    66    26    63   1
    67    26    64   1
    68    27    65   1
    69    27    66   1
    70    28    67   1
    71    28    68   1
    72    29    69   1
    73    29    70   1
    74    30    71   1
    75    30    72   1
    76    31    73   1
    77    31    74   1
    78    32    75   1
    79    32    76   1
    80    33    77   1
    81    33    78   1
    82    34    79   1
    83    34    80   1
    84    35    81   1
    85    35    82   1
    86    36    83   1
    87    36    84   1
@<TRIPOS>SUBSTRUCTURE
     1  E12      1

