@<TRIPOS>MOLECULE
1h23_ligand_003
    84    87
SMALL
GAST_HUCK
****
This file was generated by PARSER (from files_GN.cpp)

@<TRIPOS>ATOM
      1 C1          3.9088   57.5496   70.9318 C.2         1 E12       0.1811
      2 N2          3.9368   57.8049   72.2392 N.am        1 E12      -0.2230
      3 O7          4.5329   56.5945   70.4979 O.2         1 E12      -0.4310
      4 C4          2.4390   59.5959   72.0185 C.2         1 E12       0.0225
      5 C5          2.4832   59.3799   70.6484 C.2         1 E12      -0.0779
      6 C14         2.9766   60.4325   74.7213 C.3         1 E12      -0.0310
      7 N17         0.1907   60.5661   72.0771 N.4         1 E12       0.2346
      8 C24        -0.7060   61.7471   72.1915 C.3         1 E12      -0.0329
      9 C6          3.1878   58.3652   70.1116 C.2         1 E12      -0.0278
     10 C9          3.4518   59.0450   74.2257 C.3         1 E12       0.0189
     11 C10         1.5978   60.6783   72.5701 C.3         1 E12      -0.0032
     12 C13         1.5853   60.7468   74.1337 C.3         1 E12      -0.0041
     13 C63        -0.6535   62.7133   70.9667 C.3         1 E12      -0.0126
     14 C29         4.5661   63.7277   63.8305 C.2         1 E12       0.1811
     15 C3          3.2601   58.8319   72.7961 C.2         1 E12       0.0883
     16 N30         5.2137   64.7370   63.2482 N.am        1 E12      -0.2230
     17 C31         4.6642   65.9617   63.0894 C.2         1 E12       0.0883
     18 C32         3.4169   66.2028   63.5841 C.2         1 E12       0.0225
     19 C33         2.7085   65.1225   64.0809 C.2         1 E12      -0.0779
     20 C34         3.2776   63.9135   64.2399 C.2         1 E12      -0.0278
     21 O35         5.1279   62.6533   63.9705 O.2         1 E12      -0.4310
     22 C36         5.4463   66.9623   62.3725 C.3         1 E12       0.0189
     23 C37         2.7829   67.5339   63.5300 C.3         1 E12      -0.0032
     24 C38         3.6179   68.6496   62.8091 C.3         1 E12      -0.0041
     25 C39         4.5632   68.0625   61.7328 C.3         1 E12      -0.0310
     26 N40         2.2182   68.0047   64.8394 N.4         1 E12       0.2346
     27 C41         3.0542   68.2385   66.0553 C.3         1 E12      -0.0329
     28 C64        -0.2588   64.1885   71.2827 C.3         1 E12      -0.0483
     29 C65         1.2489   64.4806   71.5271 C.3         1 E12      -0.0529
     30 C66         2.1720   63.9678   70.3853 C.3         1 E12      -0.0531
     31 C67         3.6401   64.4697   70.4571 C.3         1 E12      -0.0531
     32 C68         4.4342   64.0991   69.1695 C.3         1 E12      -0.0531
     33 C69         5.6639   65.0146   68.8816 C.3         1 E12      -0.0531
     34 C70         5.7420   65.6027   67.4357 C.3         1 E12      -0.0529
     35 C71         5.0462   66.9741   67.1853 C.3         1 E12      -0.0483
     36 C72         3.5267   66.9657   66.8435 C.3         1 E12      -0.0126
     37 H1          4.4703   57.2320   72.8112 H           1 E12       0.2526
     38 H2          1.9876   59.9850   70.0307 H           1 E12       0.0600
     39 H3          2.9347   60.4427   75.8141 H           1 E12       0.0298
     40 H4          3.6865   61.2015   74.3997 H           1 E12       0.0298
     41 H5         -0.2488   59.7938   72.5830 H           1 E12       0.2022
     42 H6          0.2100   60.3043   71.0922 H           1 E12       0.2022
     43 H7         -0.5312   62.2882   73.1239 H           1 E12       0.0814
     44 H8         -1.7206   61.3426   72.2580 H           1 E12       0.0814
     45 H9          3.1936   58.2246   69.1266 H           1 E12       0.0298
     46 H10         4.5148   58.9544   74.4685 H           1 E12       0.0511
     47 H11         2.9173   58.2584   74.7670 H           1 E12       0.0511
     48 H12         2.0314   61.6054   72.1985 H           1 E12       0.0913
     49 H13         0.8689   60.0210   74.5321 H           1 E12       0.0333
     50 H14         1.2796   61.7408   74.4725 H           1 E12       0.0333
     51 H15        -1.6539   62.7413   70.5181 H           1 E12       0.0317
     52 H16         0.0051   62.3132   70.1941 H           1 E12       0.0317
     53 H17         6.1172   64.5863   62.9292 H           1 E12       0.2526
     54 H18         1.7494   65.2271   64.3222 H           1 E12       0.0600
     55 H19         2.7541   63.1567   64.6205 H           1 E12       0.0298
     56 H20         6.0271   66.4900   61.5743 H           1 E12       0.0511
     57 H21         6.1506   67.4192   63.0721 H           1 E12       0.0511
     58 H22         1.9038   67.3939   62.8917 H           1 E12       0.0913
     59 H23         4.2284   69.1995   63.5261 H           1 E12       0.0333
     60 H24         2.9457   69.3717   62.3342 H           1 E12       0.0333
     61 H25         3.9749   67.6329   60.9144 H           1 E12       0.0298
     62 H26         5.1968   68.8515   61.3169 H           1 E12       0.0298
     63 H27         1.7627   68.9007   64.6358 H           1 E12       0.2022
     64 H28         1.4758   67.3501   65.1030 H           1 E12       0.2022
     65 H29         3.8932   68.8885   65.8063 H           1 E12       0.0814
     66 H30         2.4208   68.8218   66.7300 H           1 E12       0.0814
     67 H31        -0.8264   64.5268   72.1524 H           1 E12       0.0267
     68 H32        -0.5766   64.8073   70.4380 H           1 E12       0.0267
     69 H33         1.5579   64.0601   72.4868 H           1 E12       0.0265
     70 H34         1.3572   65.5665   71.6058 H           1 E12       0.0265
     71 H35         1.7502   64.2960   69.4296 H           1 E12       0.0265
     72 H36         2.1820   62.8741   70.3863 H           1 E12       0.0265
     73 H37         4.1343   64.0335   71.3318 H           1 E12       0.0265
     74 H38         3.6278   65.5580   70.5761 H           1 E12       0.0265
     75 H39         3.7591   64.1232   68.3123 H           1 E12       0.0265
     76 H40         4.7749   63.0619   69.2710 H           1 E12       0.0265
     77 H41         6.5642   64.4149   69.0492 H           1 E12       0.0265
     78 H42         5.7118   65.8393   69.5971 H           1 E12       0.0265
     79 H43         5.3735   64.8739   66.7076 H           1 E12       0.0265
     80 H44         6.8039   65.7583   67.2156 H           1 E12       0.0265
     81 H45         5.5896   67.4492   66.3613 H           1 E12       0.0267
     82 H46         5.1832   67.5952   68.0726 H           1 E12       0.0267
     83 H47         2.9670   66.8963   67.7856 H           1 E12       0.0317
     84 H48         3.2854   66.0693   66.2724 H           1 E12       0.0317
@<TRIPOS>BOND
     1     1     9   1
     2     1     3   2
     3     1     2  am
     4     2    15   1
     5    15    10   1
     6    15     4   2
     7     4    11   1
     8     4     5   1
     9     5     9   2
    10    11     7   1
    11    11    12   1
    12    12     6   1
    13     6    10   1
    14     7     8   1
    15     8    13   1
    16    13    28   1
    17    28    29   1
    18    29    30   1
    19    30    31   1
    20    31    32   1
    21    32    33   1
    22    33    34   1
    23    34    35   1
    24    35    36   1
    25    36    27   1
    26    27    26   1
    27    26    23   1
    28    23    24   1
    29    23    18   1
    30    18    19   1
    31    18    17   2
    32    17    22   1
    33    17    16   1
    34    16    14  am
    35    14    20   1
    36    14    21   2
    37    20    19   2
    38    22    25   1
    39    25    24   1
    40     2    37   1
    41     5    38   1
    42     6    39   1
    43     6    40   1
    44     7    41   1
    45     7    42   1
    46     8    43   1
    47     8    44   1
    48     9    45   1
    49    10    46   1
    50    10    47   1
    51    11    48   1
    52    12    49   1
    53    12    50   1
    54    13    51   1
    55    13    52   1
    56    16    53   1
    57    19    54   1
    58    20    55   1
    59    22    56   1
    60    22    57   1
    61    23    58   1
    62    24    59   1
    63    24    60   1
    64    25    61   1
    65    25    62   1
    66    26    63   1
    67    26    64   1
    68    27    65   1
    69    27    66   1
    70    28    67   1
    71    28    68   1
    72    29    69   1
    73    29    70   1
    74    30    71   1
    75    30    72   1
    76    31    73   1
    77    31    74   1
    78    32    75   1
    79    32    76   1
    80    33    77   1
    81    33    78   1
    82    34    79   1
    83    34    80   1
    84    35    81   1
    85    35    82   1
    86    36    83   1
    87    36    84   1
@<TRIPOS>SUBSTRUCTURE
     1  E12      1

