@<TRIPOS>MOLECULE
1h23_ligand_029
    84    87
SMALL
GAST_HUCK
****
This file was generated by PARSER (from files_GN.cpp)

@<TRIPOS>ATOM
      1 C1          2.3382   69.0437   65.8047 C.2         1 E12       0.1811
      2 N2          1.7104   68.8928   64.6413 N.am        1 E12      -0.2230
      3 O7          1.6827   69.0414   66.8357 O.2         1 E12      -0.4310
      4 C4          3.7225   68.9998   63.4472 C.2         1 E12       0.0225
      5 C5          4.3618   69.2223   64.6526 C.2         1 E12      -0.0779
      6 C14         2.3157   68.2974   61.0043 C.3         1 E12      -0.0310
      7 N17         5.5588   67.9055   62.2080 N.4         1 E12       0.2346
      8 C24         5.2204   66.4619   62.2446 C.3         1 E12      -0.0329
      9 C6          3.6890   69.2153   65.8180 C.2         1 E12      -0.0278
     10 C9          1.5502   68.7996   62.2522 C.3         1 E12       0.0189
     11 C10         4.5160   68.9787   62.2030 C.3         1 E12      -0.0032
     12 C13         3.6871   69.0048   60.8767 C.3         1 E12      -0.0041
     13 C63         4.7494   65.9280   63.6232 C.3         1 E12      -0.0126
     14 C29         4.7459   60.0002   72.0759 C.2         1 E12       0.1811
     15 C3          2.3633   68.8998   63.4601 C.2         1 E12       0.0883
     16 N30         3.6458   59.2572   71.9668 N.am        1 E12      -0.2230
     17 C31         2.4840   59.5731   72.5851 C.2         1 E12       0.0883
     18 C32         2.4223   60.7042   73.3412 C.2         1 E12       0.0225
     19 C33         3.5713   61.4627   73.4656 C.2         1 E12      -0.0779
     20 C34         4.7240   61.1146   72.8560 C.2         1 E12      -0.0278
     21 O35         5.7430   59.6795   71.4474 O.2         1 E12      -0.4310
     22 C36         1.3860   58.6262   72.4394 C.3         1 E12       0.0189
     23 C37         1.2105   61.1106   74.0766 C.3         1 E12      -0.0032
     24 C38         0.1565   59.9658   74.2461 C.3         1 E12      -0.0041
     25 C39         0.0057   59.0984   72.9749 C.3         1 E12      -0.0310
     26 N40         0.6772   62.4297   73.6145 N.4         1 E12       0.2346
     27 C41        -0.3156   62.5823   72.5148 C.3         1 E12      -0.0329
     28 C64         4.2950   64.4365   63.5587 C.3         1 E12      -0.0483
     29 C65         4.4435   63.6567   64.8973 C.3         1 E12      -0.0529
     30 C66         3.0980   63.1948   65.5441 C.3         1 E12      -0.0531
     31 C67         3.2783   62.6494   66.9961 C.3         1 E12      -0.0531
     32 C68         3.5951   63.7638   68.0435 C.3         1 E12      -0.0531
     33 C69         3.7530   63.2494   69.5048 C.3         1 E12      -0.0531
     34 C70         2.5704   62.4184   70.0766 C.3         1 E12      -0.0529
     35 C71         1.3604   63.2514   70.5937 C.3         1 E12      -0.0483
     36 C72         0.1881   62.3317   71.0671 C.3         1 E12      -0.0126
     37 H1          0.7447   68.8014   64.6352 H           1 E12       0.2526
     38 H2          5.3441   69.3603   64.6823 H           1 E12       0.0600
     39 H3          2.4517   67.2162   61.0853 H           1 E12       0.0298
     40 H4          1.7184   68.4881   60.1046 H           1 E12       0.0298
     41 H5          6.1952   68.0883   62.9897 H           1 E12       0.2022
     42 H6          6.0996   68.0218   61.3472 H           1 E12       0.2022
     43 H7          6.1549   65.9472   61.9949 H           1 E12       0.0814
     44 H8          4.4955   66.2063   61.4643 H           1 E12       0.0814
     45 H9          4.1646   69.3610   66.6764 H           1 E12       0.0298
     46 H10         1.1502   69.7952   62.0505 H           1 E12       0.0511
     47 H11         0.7012   68.1243   62.4159 H           1 E12       0.0511
     48 H12         5.1012   69.9108   62.1827 H           1 E12       0.0913
     49 H13         4.2522   68.5487   60.0588 H           1 E12       0.0333
     50 H14         3.4984   70.0465   60.5940 H           1 E12       0.0333
     51 H15         3.9094   66.5366   63.9911 H           1 E12       0.0317
     52 H16         5.5929   66.0138   64.3271 H           1 E12       0.0317
     53 H17         3.6741   58.4627   71.4139 H           1 E12       0.2526
     54 H18         3.5694   62.2840   74.0298 H           1 E12       0.0600
     55 H19         5.5408   61.6702   72.9731 H           1 E12       0.0298
     56 H20         1.6670   57.7047   72.9575 H           1 E12       0.0511
     57 H21         1.2691   58.3851   71.3802 H           1 E12       0.0511
     58 H22         1.5380   61.3150   75.1014 H           1 E12       0.0913
     59 H23        -0.8124   60.3818   74.5362 H           1 E12       0.0333
     60 H24         0.4831   59.3063   75.0603 H           1 E12       0.0333
     61 H25        -0.6161   58.2257   73.2034 H           1 E12       0.0298
     62 H26        -0.5126   59.6651   72.2009 H           1 E12       0.0298
     63 H27         0.2306   62.8518   74.4365 H           1 E12       0.2022
     64 H28         1.4789   63.0254   73.3788 H           1 E12       0.2022
     65 H29        -1.1721   61.9310   72.7126 H           1 E12       0.0814
     66 H30        -0.6856   63.6080   72.5659 H           1 E12       0.0814
     67 H31         4.8980   63.9045   62.7990 H           1 E12       0.0267
     68 H32         3.2452   64.4018   63.2264 H           1 E12       0.0267
     69 H33         5.0002   64.2707   65.6227 H           1 E12       0.0265
     70 H34         5.0409   62.7516   64.7050 H           1 E12       0.0265
     71 H35         2.6904   62.3908   64.9151 H           1 E12       0.0265
     72 H36         2.3790   64.0219   65.5413 H           1 E12       0.0265
     73 H37         4.0691   61.8925   67.0052 H           1 E12       0.0265
     74 H38         2.3491   62.1513   67.2821 H           1 E12       0.0265
     75 H39         2.8044   64.5226   68.0133 H           1 E12       0.0265
     76 H40         4.5377   64.2478   67.7621 H           1 E12       0.0265
     77 H41         3.9276   64.1212   70.1561 H           1 E12       0.0265
     78 H42         4.6592   62.6292   69.5457 H           1 E12       0.0265
     79 H43         2.9664   61.8516   70.9272 H           1 E12       0.0265
     80 H44         2.2340   61.6932   69.3213 H           1 E12       0.0265
     81 H45         1.0023   63.9040   69.7825 H           1 E12       0.0267
     82 H46         1.7076   63.8982   71.4162 H           1 E12       0.0267
     83 H47         0.4607   61.2754   70.9682 H           1 E12       0.0317
     84 H48        -0.6595   62.5046   70.3916 H           1 E12       0.0317
@<TRIPOS>BOND
     1     1     9   1
     2     1     3   2
     3     1     2  am
     4     2    15   1
     5    15    10   1
     6    15     4   2
     7     4    11   1
     8     4     5   1
     9     5     9   2
    10    11     7   1
    11    11    12   1
    12    12     6   1
    13     6    10   1
    14     7     8   1
    15     8    13   1
    16    13    28   1
    17    28    29   1
    18    29    30   1
    19    30    31   1
    20    31    32   1
    21    32    33   1
    22    33    34   1
    23    34    35   1
    24    35    36   1
    25    36    27   1
    26    27    26   1
    27    26    23   1
    28    23    24   1
    29    23    18   1
    30    18    19   1
    31    18    17   2
    32    17    22   1
    33    17    16   1
    34    16    14  am
    35    14    20   1
    36    14    21   2
    37    20    19   2
    38    22    25   1
    39    25    24   1
    40     2    37   1
    41     5    38   1
    42     6    39   1
    43     6    40   1
    44     7    41   1
    45     7    42   1
    46     8    43   1
    47     8    44   1
    48     9    45   1
    49    10    46   1
    50    10    47   1
    51    11    48   1
    52    12    49   1
    53    12    50   1
    54    13    51   1
    55    13    52   1
    56    16    53   1
    57    19    54   1
    58    20    55   1
    59    22    56   1
    60    22    57   1
    61    23    58   1
    62    24    59   1
    63    24    60   1
    64    25    61   1
    65    25    62   1
    66    26    63   1
    67    26    64   1
    68    27    65   1
    69    27    66   1
    70    28    67   1
    71    28    68   1
    72    29    69   1
    73    29    70   1
    74    30    71   1
    75    30    72   1
    76    31    73   1
    77    31    74   1
    78    32    75   1
    79    32    76   1
    80    33    77   1
    81    33    78   1
    82    34    79   1
    83    34    80   1
    84    35    81   1
    85    35    82   1
    86    36    83   1
    87    36    84   1
@<TRIPOS>SUBSTRUCTURE
     1  E12      1

