@<TRIPOS>MOLECULE
1h23_ligand_067
    84    87
SMALL
GAST_HUCK
****
This file was generated by PARSER (from files_GN.cpp)

@<TRIPOS>ATOM
      1 C1         -0.8221   58.3990   75.5443 C.2         1 E12       0.1811
      2 N2         -1.1432   58.9778   74.3894 N.am        1 E12      -0.2230
      3 O7         -1.3122   57.3154   75.8281 O.2         1 E12      -0.4310
      4 C4          0.3218   60.7619   74.7784 C.2         1 E12       0.0225
      5 C5          0.5860   60.2024   76.0163 C.2         1 E12      -0.0779
      6 C14        -0.7465   62.2076   72.5382 C.3         1 E12      -0.0310
      7 N17         2.5647   61.8527   74.4734 N.4         1 E12       0.2346
      8 C24         3.2671   60.5897   74.1062 C.3         1 E12      -0.0329
      9 C6          0.0410   59.0282   76.3904 C.2         1 E12      -0.0278
     10 C9         -1.0853   60.7076   72.7276 C.3         1 E12       0.0189
     11 C10         1.0762   61.9548   74.3355 C.3         1 E12      -0.0032
     12 C13         0.7343   62.4448   72.8928 C.3         1 E12      -0.0041
     13 C63         4.4633   60.7533   73.1303 C.3         1 E12      -0.0126
     14 C29         2.4804   68.4168   60.8484 C.2         1 E12       0.1811
     15 C3         -0.6225   60.1637   73.9994 C.2         1 E12       0.0883
     16 N30         3.7975   68.2563   60.9589 N.am        1 E12      -0.2230
     17 C31         4.4507   68.4173   62.1318 C.2         1 E12       0.0883
     18 C32         3.7629   68.8194   63.2400 C.2         1 E12       0.0225
     19 C33         2.3955   68.9898   63.1134 C.2         1 E12      -0.0779
     20 C34         1.7561   68.7806   61.9448 C.2         1 E12      -0.0278
     21 O35         1.9458   68.2522   59.7620 O.2         1 E12      -0.4310
     22 C36         5.8894   68.1904   62.1084 C.3         1 E12       0.0189
     23 C37         4.4254   69.0985   64.5326 C.3         1 E12      -0.0032
     24 C38         5.9846   69.1214   64.4469 C.3         1 E12      -0.0041
     25 C39         6.5040   68.0083   63.5138 C.3         1 E12      -0.0310
     26 N40         3.9993   68.1332   65.5979 N.4         1 E12       0.2346
     27 C41         2.9907   68.6074   66.5836 C.3         1 E12      -0.0329
     28 C64         4.0775   61.0154   71.6445 C.3         1 E12      -0.0483
     29 C65         4.0690   62.5089   71.2024 C.3         1 E12      -0.0529
     30 C66         5.4774   63.1165   70.9100 C.3         1 E12      -0.0531
     31 C67         5.5416   64.1370   69.7363 C.3         1 E12      -0.0531
     32 C68         5.0381   65.5791   70.0070 C.3         1 E12      -0.0531
     33 C69         3.5159   65.7973   70.2406 C.3         1 E12      -0.0531
     34 C70         2.5564   65.4803   69.0547 C.3         1 E12      -0.0529
     35 C71         2.7745   66.2577   67.7225 C.3         1 E12      -0.0483
     36 C72         2.9911   67.7864   67.8928 C.3         1 E12      -0.0126
     37 H1         -1.7788   58.5323   73.8080 H           1 E12       0.2526
     38 H2          1.1951   60.6703   76.6513 H           1 E12       0.0600
     39 H3         -0.9418   62.5012   71.5021 H           1 E12       0.0298
     40 H4         -1.3761   62.8145   73.1925 H           1 E12       0.0298
     41 H5          2.7896   62.0395   75.4545 H           1 E12       0.2022
     42 H6          2.9795   62.6169   73.9388 H           1 E12       0.2022
     43 H7          2.5890   59.8464   73.6816 H           1 E12       0.0814
     44 H8          3.6540   60.1671   75.0390 H           1 E12       0.0814
     45 H9          0.2526   58.6420   77.2811 H           1 E12       0.0298
     46 H10        -2.1716   60.5966   72.6589 H           1 E12       0.0511
     47 H11        -0.6334   60.1233   71.9201 H           1 E12       0.0511
     48 H12         0.7709   62.7689   74.9989 H           1 E12       0.0913
     49 H13         1.3218   61.9010   72.1573 H           1 E12       0.0333
     50 H14         0.9755   63.5063   72.7832 H           1 E12       0.0333
     51 H15         5.0217   59.8118   73.1661 H           1 E12       0.0317
     52 H16         5.1296   61.5363   73.4927 H           1 E12       0.0317
     53 H17         4.3170   68.0107   60.1745 H           1 E12       0.2526
     54 H18         1.8582   69.2914   63.8901 H           1 E12       0.0600
     55 H19         0.7709   68.9047   61.8847 H           1 E12       0.0298
     56 H20         6.3649   69.0408   61.6111 H           1 E12       0.0511
     57 H21         6.1146   67.2903   61.5321 H           1 E12       0.0511
     58 H22         4.1493   70.1172   64.8223 H           1 E12       0.0913
     59 H23         6.4341   69.0010   65.4325 H           1 E12       0.0333
     60 H24         6.3193   70.0873   64.0565 H           1 E12       0.0333
     61 H25         7.5936   68.0461   63.4461 H           1 E12       0.0298
     62 H26         6.2182   67.0318   63.9172 H           1 E12       0.0298
     63 H27         3.6336   67.2895   65.1499 H           1 E12       0.2022
     64 H28         4.8296   67.8609   66.1299 H           1 E12       0.2022
     65 H29         3.2030   69.6428   66.8661 H           1 E12       0.0814
     66 H30         1.9935   68.5719   66.1452 H           1 E12       0.0814
     67 H31         3.0991   60.5721   71.4431 H           1 E12       0.0267
     68 H32         4.7659   60.4704   70.9971 H           1 E12       0.0267
     69 H33         3.5705   63.1087   71.9639 H           1 E12       0.0265
     70 H34         3.4548   62.5684   70.2999 H           1 E12       0.0265
     71 H35         6.1653   62.3086   70.6476 H           1 E12       0.0265
     72 H36         5.8734   63.5785   71.8172 H           1 E12       0.0265
     73 H37         5.0309   63.7272   68.8622 H           1 E12       0.0265
     74 H38         6.5968   64.2361   69.4621 H           1 E12       0.0265
     75 H39         5.3501   66.1913   69.1552 H           1 E12       0.0265
     76 H40         5.5708   65.9646   70.8779 H           1 E12       0.0265
     77 H41         3.3669   66.8391   70.5350 H           1 E12       0.0265
     78 H42         3.1996   65.2153   71.1039 H           1 E12       0.0265
     79 H43         1.5392   65.6857   69.4001 H           1 E12       0.0265
     80 H44         2.5970   64.4095   68.8336 H           1 E12       0.0265
     81 H45         1.8914   66.0990   67.0942 H           1 E12       0.0267
     82 H46         3.6317   65.8306   67.1964 H           1 E12       0.0267
     83 H47         3.9501   67.9634   68.3794 H           1 E12       0.0317
     84 H48         2.2099   68.1830   68.5433 H           1 E12       0.0317
@<TRIPOS>BOND
     1     1     9   1
     2     1     3   2
     3     1     2  am
     4     2    15   1
     5    15    10   1
     6    15     4   2
     7     4    11   1
     8     4     5   1
     9     5     9   2
    10    11     7   1
    11    11    12   1
    12    12     6   1
    13     6    10   1
    14     7     8   1
    15     8    13   1
    16    13    28   1
    17    28    29   1
    18    29    30   1
    19    30    31   1
    20    31    32   1
    21    32    33   1
    22    33    34   1
    23    34    35   1
    24    35    36   1
    25    36    27   1
    26    27    26   1
    27    26    23   1
    28    23    24   1
    29    23    18   1
    30    18    19   1
    31    18    17   2
    32    17    22   1
    33    17    16   1
    34    16    14  am
    35    14    20   1
    36    14    21   2
    37    20    19   2
    38    22    25   1
    39    25    24   1
    40     2    37   1
    41     5    38   1
    42     6    39   1
    43     6    40   1
    44     7    41   1
    45     7    42   1
    46     8    43   1
    47     8    44   1
    48     9    45   1
    49    10    46   1
    50    10    47   1
    51    11    48   1
    52    12    49   1
    53    12    50   1
    54    13    51   1
    55    13    52   1
    56    16    53   1
    57    19    54   1
    58    20    55   1
    59    22    56   1
    60    22    57   1
    61    23    58   1
    62    24    59   1
    63    24    60   1
    64    25    61   1
    65    25    62   1
    66    26    63   1
    67    26    64   1
    68    27    65   1
    69    27    66   1
    70    28    67   1
    71    28    68   1
    72    29    69   1
    73    29    70   1
    74    30    71   1
    75    30    72   1
    76    31    73   1
    77    31    74   1
    78    32    75   1
    79    32    76   1
    80    33    77   1
    81    33    78   1
    82    34    79   1
    83    34    80   1
    84    35    81   1
    85    35    82   1
    86    36    83   1
    87    36    84   1
@<TRIPOS>SUBSTRUCTURE
     1  E12      1

