@<TRIPOS>MOLECULE
1h23_ligand_030
    84    87
SMALL
GAST_HUCK
****
This file was generated by PARSER (from files_GN.cpp)

@<TRIPOS>ATOM
      1 C1          4.1088   66.3323   78.2075 C.2         1 E12       0.1811
      2 N2          3.4604   65.6252   79.1283 N.am        1 E12      -0.2230
      3 O7          4.9311   67.1621   78.5653 O.2         1 E12      -0.4310
      4 C4          2.2314   64.4500   77.5011 C.2         1 E12       0.0225
      5 C5          2.8957   65.2131   76.5525 C.2         1 E12      -0.0779
      6 C14         0.4411   63.5157   79.5537 C.3         1 E12      -0.0310
      7 N17         1.6970   62.5759   76.0142 N.4         1 E12       0.2346
      8 C24         0.9643   61.3315   75.6815 C.3         1 E12      -0.0329
      9 C6          3.8213   66.1359   76.8893 C.2         1 E12      -0.0278
     10 C9          1.8167   64.1045   79.9337 C.3         1 E12       0.0189
     11 C10         1.1811   63.4919   77.0798 C.3         1 E12      -0.0032
     12 C13         0.5740   62.6686   78.2694 C.3         1 E12      -0.0041
     13 C63        -0.0612   61.4556   74.5057 C.3         1 E12      -0.0126
     14 C29         2.5026   68.4380   60.7590 C.2         1 E12       0.1811
     15 C3          2.5116   64.7160   78.8097 C.2         1 E12       0.0883
     16 N30         3.7956   68.2085   60.9932 N.am        1 E12      -0.2230
     17 C31         4.3438   68.3312   62.2215 C.2         1 E12       0.0883
     18 C32         3.5523   68.6424   63.2927 C.2         1 E12       0.0225
     19 C33         2.2321   68.9749   63.0163 C.2         1 E12      -0.0779
     20 C34         1.7069   68.8529   61.7877 C.2         1 E12      -0.0278
     21 O35         2.0693   68.3138   59.6313 O.2         1 E12      -0.4310
     22 C36         5.7829   68.1144   62.2999 C.3         1 E12       0.0189
     23 C37         4.0679   68.7066   64.6760 C.3         1 E12      -0.0032
     24 C38         5.5031   68.0976   64.8119 C.3         1 E12      -0.0041
     25 C39         6.4164   68.5280   63.6467 C.3         1 E12      -0.0310
     26 N40         3.1366   68.0434   65.6508 N.4         1 E12       0.2346
     27 C41         3.3495   68.3350   67.0920 C.3         1 E12      -0.0329
     28 C64         0.6082   61.5159   73.0943 C.3         1 E12      -0.0483
     29 C65        -0.3846   61.3722   71.9119 C.3         1 E12      -0.0529
     30 C66        -1.1123   62.6590   71.3994 C.3         1 E12      -0.0531
     31 C67        -0.4572   63.3428   70.1630 C.3         1 E12      -0.0531
     32 C68         0.8313   64.1782   70.4345 C.3         1 E12      -0.0531
     33 C69         0.6115   65.7190   70.3893 C.3         1 E12      -0.0531
     34 C70         1.9292   66.5417   70.3341 C.3         1 E12      -0.0529
     35 C71         2.6422   66.6164   68.9500 C.3         1 E12      -0.0483
     36 C72         2.2140   67.8071   68.0299 C.3         1 E12      -0.0126
     37 H1          3.6521   65.7898   80.0637 H           1 E12       0.2526
     38 H2          2.6926   65.0953   75.5869 H           1 E12       0.0600
     39 H3          0.0691   62.8927   80.3762 H           1 E12       0.0298
     40 H4         -0.2759   64.3256   79.3891 H           1 E12       0.0298
     41 H5          2.6452   62.3028   76.2881 H           1 E12       0.2022
     42 H6          1.7748   63.1047   75.1421 H           1 E12       0.2022
     43 H7          0.4534   60.9360   76.5627 H           1 E12       0.0814
     44 H8          1.7217   60.5888   75.4318 H           1 E12       0.0814
     45 H9          4.2768   66.6750   76.1896 H           1 E12       0.0298
     46 H10         1.6522   64.8510   80.7188 H           1 E12       0.0511
     47 H11         2.4564   63.3207   80.3463 H           1 E12       0.0511
     48 H12         0.3723   64.0916   76.6521 H           1 E12       0.0913
     49 H13         1.2146   61.8102   78.4830 H           1 E12       0.0333
     50 H14        -0.4165   62.2936   77.9999 H           1 E12       0.0333
     51 H15        -0.6895   62.3370   74.6427 H           1 E12       0.0317
     52 H16        -0.7132   60.5801   74.5419 H           1 E12       0.0317
     53 H17         4.3699   67.9617   60.2492 H           1 E12       0.2526
     54 H18         1.6528   69.3401   63.7380 H           1 E12       0.0600
     55 H19         0.7572   69.1032   61.6149 H           1 E12       0.0298
     56 H20         6.2774   68.6936   61.5154 H           1 E12       0.0511
     57 H21         5.9868   67.0541   62.1134 H           1 E12       0.0511
     58 H22         4.1270   69.7714   64.9301 H           1 E12       0.0913
     59 H23         5.4371   67.0045   64.8248 H           1 E12       0.0333
     60 H24         5.9700   68.4189   65.7405 H           1 E12       0.0333
     61 H25         6.5506   69.6155   63.6744 H           1 E12       0.0298
     62 H26         7.3987   68.0621   63.7527 H           1 E12       0.0298
     63 H27         2.1846   68.3455   65.4354 H           1 E12       0.2022
     64 H28         3.1870   67.0320   65.5041 H           1 E12       0.2022
     65 H29         4.3073   67.9145   67.3973 H           1 E12       0.0814
     66 H30         3.4223   69.4212   67.2095 H           1 E12       0.0814
     67 H31         1.3052   60.6779   73.0013 H           1 E12       0.0267
     68 H32         1.1947   62.4325   73.0056 H           1 E12       0.0267
     69 H33        -1.1458   60.6491   72.2194 H           1 E12       0.0265
     70 H34         0.1537   60.9026   71.0824 H           1 E12       0.0265
     71 H35        -1.2407   63.3870   72.2044 H           1 E12       0.0265
     72 H36        -2.1164   62.3565   71.0867 H           1 E12       0.0265
     73 H37        -1.2082   63.9828   69.6900 H           1 E12       0.0265
     74 H38        -0.2227   62.5668   69.4285 H           1 E12       0.0265
     75 H39         1.5740   63.9113   69.6782 H           1 E12       0.0265
     76 H40         1.2554   63.9113   71.4040 H           1 E12       0.0265
     77 H41         0.0666   66.0114   71.2930 H           1 E12       0.0265
     78 H42        -0.0052   65.9879   69.5288 H           1 E12       0.0265
     79 H43         2.6314   66.1115   71.0535 H           1 E12       0.0265
     80 H44         1.7207   67.5607   70.6696 H           1 E12       0.0265
     81 H45         2.5007   65.6839   68.4029 H           1 E12       0.0267
     82 H46         3.7101   66.7003   69.1693 H           1 E12       0.0267
     83 H47         1.8829   68.6391   68.6564 H           1 E12       0.0317
     84 H48         1.3487   67.4978   67.4350 H           1 E12       0.0317
@<TRIPOS>BOND
     1     1     9   1
     2     1     3   2
     3     1     2  am
     4     2    15   1
     5    15    10   1
     6    15     4   2
     7     4    11   1
     8     4     5   1
     9     5     9   2
    10    11     7   1
    11    11    12   1
    12    12     6   1
    13     6    10   1
    14     7     8   1
    15     8    13   1
    16    13    28   1
    17    28    29   1
    18    29    30   1
    19    30    31   1
    20    31    32   1
    21    32    33   1
    22    33    34   1
    23    34    35   1
    24    35    36   1
    25    36    27   1
    26    27    26   1
    27    26    23   1
    28    23    24   1
    29    23    18   1
    30    18    19   1
    31    18    17   2
    32    17    22   1
    33    17    16   1
    34    16    14  am
    35    14    20   1
    36    14    21   2
    37    20    19   2
    38    22    25   1
    39    25    24   1
    40     2    37   1
    41     5    38   1
    42     6    39   1
    43     6    40   1
    44     7    41   1
    45     7    42   1
    46     8    43   1
    47     8    44   1
    48     9    45   1
    49    10    46   1
    50    10    47   1
    51    11    48   1
    52    12    49   1
    53    12    50   1
    54    13    51   1
    55    13    52   1
    56    16    53   1
    57    19    54   1
    58    20    55   1
    59    22    56   1
    60    22    57   1
    61    23    58   1
    62    24    59   1
    63    24    60   1
    64    25    61   1
    65    25    62   1
    66    26    63   1
    67    26    64   1
    68    27    65   1
    69    27    66   1
    70    28    67   1
    71    28    68   1
    72    29    69   1
    73    29    70   1
    74    30    71   1
    75    30    72   1
    76    31    73   1
    77    31    74   1
    78    32    75   1
    79    32    76   1
    80    33    77   1
    81    33    78   1
    82    34    79   1
    83    34    80   1
    84    35    81   1
    85    35    82   1
    86    36    83   1
    87    36    84   1
@<TRIPOS>SUBSTRUCTURE
     1  E12      1

