@<TRIPOS>MOLECULE
1h23_ligand_020
    84    87
SMALL
GAST_HUCK
****
This file was generated by PARSER (from files_GN.cpp)

@<TRIPOS>ATOM
      1 C1          4.0023   57.4959   70.8037 C.2         1 E12       0.1811
      2 N2          3.9372   57.8317   72.0892 N.am        1 E12      -0.2230
      3 O7          4.4206   56.3865   70.5031 O.2         1 E12      -0.4310
      4 C4          3.0108   59.9298   71.5917 C.2         1 E12       0.0225
      5 C5          3.1534   59.6043   70.2511 C.2         1 E12      -0.0779
      6 C14         3.2712   60.7493   74.3483 C.3         1 E12      -0.0310
      7 N17         1.2627   61.6161   71.1519 N.4         1 E12       0.2346
      8 C24         0.6618   62.9716   71.2603 C.3         1 E12      -0.0329
      9 C6          3.6099   58.3964   69.8598 C.2         1 E12      -0.0278
     10 C9          3.5056   59.2726   73.9470 C.3         1 E12       0.0189
     11 C10         2.4623   61.2554   71.9785 C.3         1 E12      -0.0032
     12 C13         2.1264   61.3476   73.5059 C.3         1 E12      -0.0041
     13 C63         1.6592   64.1579   71.4014 C.3         1 E12      -0.0126
     14 C29         2.6259   68.5143   60.5478 C.2         1 E12       0.1811
     15 C3          3.4839   59.0341   72.5074 C.2         1 E12       0.0883
     16 N30         3.8478   68.3832   61.0586 N.am        1 E12      -0.2230
     17 C31         4.1081   68.5192   62.3802 C.2         1 E12       0.0883
     18 C32         3.0830   68.8205   63.2254 C.2         1 E12       0.0225
     19 C33         1.8398   69.0717   62.6728 C.2         1 E12      -0.0779
     20 C34         1.5924   68.8615   61.3655 C.2         1 E12      -0.0278
     21 O35         2.4476   68.3396   59.3502 O.2         1 E12      -0.4310
     22 C36         5.4827   68.2974   62.8104 C.3         1 E12       0.0189
     23 C37         3.2192   68.7162   64.6912 C.3         1 E12      -0.0032
     24 C38         4.6707   69.0523   65.1441 C.3         1 E12      -0.0041
     25 C39         5.7177   68.2327   64.3468 C.3         1 E12      -0.0310
     26 N40         2.8192   67.3946   65.2699 N.4         1 E12       0.2346
     27 C41         1.9891   66.4527   64.4747 C.3         1 E12      -0.0329
     28 C64         2.5130   64.4249   70.1277 C.3         1 E12      -0.0483
     29 C65         3.4272   65.6965   70.2282 C.3         1 E12      -0.0529
     30 C66         4.9512   65.4231   70.4049 C.3         1 E12      -0.0531
     31 C67         5.7450   64.7776   69.2246 C.3         1 E12      -0.0531
     32 C68         5.3831   65.2408   67.7800 C.3         1 E12      -0.0531
     33 C69         4.2045   64.4513   67.1301 C.3         1 E12      -0.0531
     34 C70         4.2914   64.2565   65.5905 C.3         1 E12      -0.0529
     35 C71         2.9079   64.0197   64.9191 C.3         1 E12      -0.0483
     36 C72         1.7874   65.0784   65.1589 C.3         1 E12      -0.0126
     37 H1          4.2583   57.1962   72.7505 H           1 E12       0.2526
     38 H2          2.9255   60.2625   69.5438 H           1 E12       0.0600
     39 H3          3.0214   60.8147   75.4103 H           1 E12       0.0298
     40 H4          4.1861   61.3284   74.1716 H           1 E12       0.0298
     41 H5          0.5215   60.9372   71.3533 H           1 E12       0.2022
     42 H6          1.5208   61.5006   70.1673 H           1 E12       0.2022
     43 H7         -0.0184   62.9862   72.1115 H           1 E12       0.0814
     44 H8          0.0594   63.1294   70.3631 H           1 E12       0.0814
     45 H9          3.6931   58.1894   68.8931 H           1 E12       0.0298
     46 H10         4.4756   58.9709   74.3523 H           1 E12       0.0511
     47 H11         2.7368   58.6458   74.4121 H           1 E12       0.0511
     48 H12         3.2503   61.9932   71.7471 H           1 E12       0.0913
     49 H13         1.1975   60.8064   73.7138 H           1 E12       0.0333
     50 H14         1.9915   62.3917   73.7984 H           1 E12       0.0333
     51 H15         2.3349   63.9636   72.2463 H           1 E12       0.0317
     52 H16         1.0790   65.0627   71.6354 H           1 E12       0.0317
     53 H17         4.5771   68.1460   60.4658 H           1 E12       0.2526
     54 H18         1.0822   69.3565   63.2521 H           1 E12       0.0600
     55 H19         0.6749   68.9917   60.9990 H           1 E12       0.0298
     56 H20         6.0837   69.1099   62.3978 H           1 E12       0.0511
     57 H21         5.8509   67.3641   62.3740 H           1 E12       0.0511
     58 H22         2.5721   69.4671   65.1566 H           1 E12       0.0913
     59 H23         4.7825   68.8521   66.2142 H           1 E12       0.0333
     60 H24         4.8589   70.1170   64.9842 H           1 E12       0.0333
     61 H25         6.7172   68.6070   64.5814 H           1 E12       0.0298
     62 H26         5.6783   67.1917   64.6737 H           1 E12       0.0298
     63 H27         3.6725   66.9047   65.5209 H           1 E12       0.2022
     64 H28         2.3174   67.5845   66.1422 H           1 E12       0.2022
     65 H29         1.0069   66.9053   64.3205 H           1 E12       0.0814
     66 H30         2.4624   66.2886   63.5053 H           1 E12       0.0814
     67 H31         1.8255   64.5650   69.2805 H           1 E12       0.0267
     68 H32         3.1194   63.5295   69.9351 H           1 E12       0.0267
     69 H33         3.1091   66.3222   71.0704 H           1 E12       0.0265
     70 H34         3.2955   66.3126   69.3348 H           1 E12       0.0265
     71 H35         5.0845   64.7765   71.2803 H           1 E12       0.0265
     72 H36         5.4283   66.3804   70.6379 H           1 E12       0.0265
     73 H37         5.6771   63.6878   69.2875 H           1 E12       0.0265
     74 H38         6.8026   65.0238   69.3878 H           1 E12       0.0265
     75 H39         6.2743   65.1192   67.1570 H           1 E12       0.0265
     76 H40         5.1497   66.3117   67.7909 H           1 E12       0.0265
     77 H41         3.2815   64.9825   67.3568 H           1 E12       0.0265
     78 H42         4.1371   63.4516   67.5709 H           1 E12       0.0265
     79 H43         4.9056   63.3736   65.3888 H           1 E12       0.0265
     80 H44         4.7952   65.0996   65.1153 H           1 E12       0.0265
     81 H45         2.5272   63.0559   65.2654 H           1 E12       0.0267
     82 H46         3.0669   63.9323   63.8414 H           1 E12       0.0267
     83 H47         1.6328   65.2396   66.2300 H           1 E12       0.0317
     84 H48         0.8546   64.6542   64.7643 H           1 E12       0.0317
@<TRIPOS>BOND
     1     1     9   1
     2     1     3   2
     3     1     2  am
     4     2    15   1
     5    15    10   1
     6    15     4   2
     7     4    11   1
     8     4     5   1
     9     5     9   2
    10    11     7   1
    11    11    12   1
    12    12     6   1
    13     6    10   1
    14     7     8   1
    15     8    13   1
    16    13    28   1
    17    28    29   1
    18    29    30   1
    19    30    31   1
    20    31    32   1
    21    32    33   1
    22    33    34   1
    23    34    35   1
    24    35    36   1
    25    36    27   1
    26    27    26   1
    27    26    23   1
    28    23    24   1
    29    23    18   1
    30    18    19   1
    31    18    17   2
    32    17    22   1
    33    17    16   1
    34    16    14  am
    35    14    20   1
    36    14    21   2
    37    20    19   2
    38    22    25   1
    39    25    24   1
    40     2    37   1
    41     5    38   1
    42     6    39   1
    43     6    40   1
    44     7    41   1
    45     7    42   1
    46     8    43   1
    47     8    44   1
    48     9    45   1
    49    10    46   1
    50    10    47   1
    51    11    48   1
    52    12    49   1
    53    12    50   1
    54    13    51   1
    55    13    52   1
    56    16    53   1
    57    19    54   1
    58    20    55   1
    59    22    56   1
    60    22    57   1
    61    23    58   1
    62    24    59   1
    63    24    60   1
    64    25    61   1
    65    25    62   1
    66    26    63   1
    67    26    64   1
    68    27    65   1
    69    27    66   1
    70    28    67   1
    71    28    68   1
    72    29    69   1
    73    29    70   1
    74    30    71   1
    75    30    72   1
    76    31    73   1
    77    31    74   1
    78    32    75   1
    79    32    76   1
    80    33    77   1
    81    33    78   1
    82    34    79   1
    83    34    80   1
    84    35    81   1
    85    35    82   1
    86    36    83   1
    87    36    84   1
@<TRIPOS>SUBSTRUCTURE
     1  E12      1

