@<TRIPOS>MOLECULE
1h23_ligand_078
    84    87
SMALL
GAST_HUCK
****
This file was generated by PARSER (from files_GN.cpp)

@<TRIPOS>ATOM
      1 C1         -0.5421   64.9335   70.4029 C.2         1 E12       0.1811
      2 N2         -0.4752   65.5251   71.5958 N.am        1 E12      -0.2230
      3 O7         -0.4842   65.6151   69.3899 O.2         1 E12      -0.4310
      4 C4         -0.5621   63.4668   72.7126 C.2         1 E12       0.0225
      5 C5         -0.7902   62.8772   71.4828 C.2         1 E12      -0.0779
      6 C14        -0.8814   64.7717   75.2646 C.3         1 E12      -0.0310
      7 N17         0.5509   61.4835   73.8520 N.4         1 E12       0.2346
      8 C24         1.6818   61.4009   72.8859 C.3         1 E12      -0.0329
      9 C6         -0.7303   63.5837   70.3373 C.2         1 E12      -0.0278
     10 C9         -0.5482   65.5991   73.9953 C.3         1 E12       0.0189
     11 C10        -0.4144   62.6294   73.9211 C.3         1 E12      -0.0032
     12 C13        -0.1351   63.4225   75.2394 C.3         1 E12      -0.0041
     13 C63         2.7550   62.5328   72.9196 C.3         1 E12      -0.0126
     14 C29         2.4179   69.0140   65.8640 C.2         1 E12       0.1811
     15 C3         -0.5293   64.8285   72.7580 C.2         1 E12       0.0883
     16 N30         1.7899   68.8953   64.6949 N.am        1 E12      -0.2230
     17 C31         2.4496   68.8650   63.5132 C.2         1 E12       0.0883
     18 C32         3.8114   68.9306   63.5048 C.2         1 E12       0.0225
     19 C33         4.4504   69.1168   64.7187 C.2         1 E12      -0.0779
     20 C34         3.7715   69.1426   65.8834 C.2         1 E12      -0.0278
     21 O35         1.7607   69.0232   66.8940 O.2         1 E12      -0.4310
     22 C36         1.6285   68.7906   62.3109 C.3         1 E12       0.0189
     23 C37         4.6025   68.8832   62.2599 C.3         1 E12      -0.0032
     24 C38         3.7662   69.0062   60.9442 C.3         1 E12      -0.0041
     25 C39         2.3888   68.3111   61.0520 C.3         1 E12      -0.0310
     26 N40         5.5771   67.7476   62.2450 N.4         1 E12       0.2346
     27 C41         5.1488   66.3463   62.0100 C.3         1 E12      -0.0329
     28 C64         3.0184   63.2798   71.5766 C.3         1 E12      -0.0483
     29 C65         3.3783   62.3705   70.3639 C.3         1 E12      -0.0529
     30 C66         4.1470   63.0615   69.1991 C.3         1 E12      -0.0531
     31 C67         3.5590   64.4140   68.6931 C.3         1 E12      -0.0531
     32 C68         4.1118   64.8578   67.3004 C.3         1 E12      -0.0531
     33 C69         3.3341   64.2683   66.0791 C.3         1 E12      -0.0531
     34 C70         4.2137   63.7552   64.9057 C.3         1 E12      -0.0529
     35 C71         5.0686   64.8067   64.1359 C.3         1 E12      -0.0483
     36 C72         4.2714   65.6490   63.0943 C.3         1 E12      -0.0126
     37 H1         -0.3845   66.4910   71.6338 H           1 E12       0.2526
     38 H2         -1.0026   61.9076   71.4303 H           1 E12       0.0600
     39 H3         -0.6028   65.3391   76.1571 H           1 E12       0.0298
     40 H4         -1.9576   64.5859   75.3128 H           1 E12       0.0298
     41 H5         -0.0146   60.6502   73.6729 H           1 E12       0.2022
     42 H6          0.9541   61.3639   74.7837 H           1 E12       0.2022
     43 H7          1.2734   61.2814   71.8857 H           1 E12       0.0814
     44 H8          2.1874   60.4547   73.1038 H           1 E12       0.0814
     45 H9         -0.8712   63.1336   69.4623 H           1 E12       0.0298
     46 H10        -1.2961   66.3937   73.9130 H           1 E12       0.0511
     47 H11         0.4244   66.0721   74.1250 H           1 E12       0.0511
     48 H12        -1.3990   62.1690   74.0643 H           1 E12       0.0913
     49 H13         0.9287   63.6222   75.3532 H           1 E12       0.0333
     50 H14        -0.4473   62.8258   76.1003 H           1 E12       0.0333
     51 H15         3.7023   62.1061   73.2652 H           1 E12       0.0317
     52 H16         2.4720   63.2811   73.6566 H           1 E12       0.0317
     53 H17         0.8187   68.8121   64.6916 H           1 E12       0.2526
     54 H18         5.4388   69.2187   64.7478 H           1 E12       0.0600
     55 H19         4.2521   69.2642   66.7422 H           1 E12       0.0298
     56 H20         1.2158   69.7850   62.1215 H           1 E12       0.0511
     57 H21         0.7897   68.1062   62.4758 H           1 E12       0.0511
     58 H22         5.2386   69.7766   62.2670 H           1 E12       0.0913
     59 H23         4.3200   68.5941   60.0988 H           1 E12       0.0333
     60 H24         3.5879   70.0610   60.7250 H           1 E12       0.0333
     61 H25         1.7956   68.5186   60.1593 H           1 E12       0.0298
     62 H26         2.5190   67.2320   61.1113 H           1 E12       0.0298
     63 H27         6.2282   67.9410   61.4748 H           1 E12       0.2022
     64 H28         6.1153   67.7651   63.1148 H           1 E12       0.2022
     65 H29         4.6466   66.2930   61.0439 H           1 E12       0.0814
     66 H30         6.0672   65.7723   61.8855 H           1 E12       0.0814
     67 H31         3.8453   63.9789   71.7416 H           1 E12       0.0267
     68 H32         2.1287   63.8679   71.3239 H           1 E12       0.0267
     69 H33         2.4579   61.9502   69.9496 H           1 E12       0.0265
     70 H34         3.9957   61.5367   70.7151 H           1 E12       0.0265
     71 H35         4.1778   62.3541   68.3629 H           1 E12       0.0265
     72 H36         5.1829   63.2303   69.5157 H           1 E12       0.0265
     73 H37         3.8062   65.1838   69.4276 H           1 E12       0.0265
     74 H38         2.4695   64.3464   68.6494 H           1 E12       0.0265
     75 H39         5.1740   64.6005   67.2458 H           1 E12       0.0265
     76 H40         4.0534   65.9481   67.2399 H           1 E12       0.0265
     77 H41         2.6323   65.0148   65.6998 H           1 E12       0.0265
     78 H42         2.7387   63.4126   66.4077 H           1 E12       0.0265
     79 H43         3.5618   63.2495   64.1856 H           1 E12       0.0265
     80 H44         4.8832   62.9887   65.3013 H           1 E12       0.0265
     81 H45         5.8443   64.2496   63.6014 H           1 E12       0.0267
     82 H46         5.5774   65.4682   64.8412 H           1 E12       0.0267
     83 H47         3.6624   66.3938   63.6162 H           1 E12       0.0317
     84 H48         3.5922   64.9689   62.5678 H           1 E12       0.0317
@<TRIPOS>BOND
     1     1     9   1
     2     1     3   2
     3     1     2  am
     4     2    15   1
     5    15    10   1
     6    15     4   2
     7     4    11   1
     8     4     5   1
     9     5     9   2
    10    11     7   1
    11    11    12   1
    12    12     6   1
    13     6    10   1
    14     7     8   1
    15     8    13   1
    16    13    28   1
    17    28    29   1
    18    29    30   1
    19    30    31   1
    20    31    32   1
    21    32    33   1
    22    33    34   1
    23    34    35   1
    24    35    36   1
    25    36    27   1
    26    27    26   1
    27    26    23   1
    28    23    24   1
    29    23    18   1
    30    18    19   1
    31    18    17   2
    32    17    22   1
    33    17    16   1
    34    16    14  am
    35    14    20   1
    36    14    21   2
    37    20    19   2
    38    22    25   1
    39    25    24   1
    40     2    37   1
    41     5    38   1
    42     6    39   1
    43     6    40   1
    44     7    41   1
    45     7    42   1
    46     8    43   1
    47     8    44   1
    48     9    45   1
    49    10    46   1
    50    10    47   1
    51    11    48   1
    52    12    49   1
    53    12    50   1
    54    13    51   1
    55    13    52   1
    56    16    53   1
    57    19    54   1
    58    20    55   1
    59    22    56   1
    60    22    57   1
    61    23    58   1
    62    24    59   1
    63    24    60   1
    64    25    61   1
    65    25    62   1
    66    26    63   1
    67    26    64   1
    68    27    65   1
    69    27    66   1
    70    28    67   1
    71    28    68   1
    72    29    69   1
    73    29    70   1
    74    30    71   1
    75    30    72   1
    76    31    73   1
    77    31    74   1
    78    32    75   1
    79    32    76   1
    80    33    77   1
    81    33    78   1
    82    34    79   1
    83    34    80   1
    84    35    81   1
    85    35    82   1
    86    36    83   1
    87    36    84   1
@<TRIPOS>SUBSTRUCTURE
     1  E12      1

