@<TRIPOS>MOLECULE
1h23_ligand_058
    84    87
SMALL
GAST_HUCK
****
This file was generated by PARSER (from files_GN.cpp)

@<TRIPOS>ATOM
      1 C1          0.3093   54.6594   76.1068 C.2         1 E12       0.1811
      2 N2          0.7965   54.8927   77.3265 N.am        1 E12      -0.2230
      3 O7         -0.8565   54.3055   75.9801 O.2         1 E12      -0.4310
      4 C4          2.8766   55.5739   76.4698 C.2         1 E12       0.0225
      5 C5          2.3944   55.2417   75.2122 C.2         1 E12      -0.0779
      6 C14         3.9603   55.7264   79.1590 C.3         1 E12      -0.0310
      7 N17         4.5669   57.1978   75.6462 N.4         1 E12       0.2346
      8 C24         3.5815   58.2685   75.3609 C.3         1 E12      -0.0329
      9 C6          1.1177   54.8475   75.0202 C.2         1 E12      -0.0278
     10 C9          2.4409   55.5457   78.9270 C.3         1 E12       0.0189
     11 C10         4.2341   56.1299   76.6385 C.3         1 E12      -0.0032
     12 C13         4.5498   56.6536   78.0799 C.3         1 E12      -0.0041
     13 C63         3.4212   58.5091   73.8405 C.3         1 E12      -0.0126
     14 C29         1.6147   69.3930   62.1578 C.2         1 E12       0.1811
     15 C3          2.0691   55.3030   77.5338 C.2         1 E12       0.0883
     16 N30         2.8871   69.2566   61.7900 N.am        1 E12      -0.2230
     17 C31         3.8751   68.9927   62.6710 C.2         1 E12       0.0883
     18 C32         3.5803   68.9070   64.0006 C.2         1 E12       0.0225
     19 C33         2.2504   69.0095   64.3724 C.2         1 E12      -0.0779
     20 C34         1.2791   69.2487   63.4689 C.2         1 E12      -0.0278
     21 O35         0.7674   69.6503   61.3183 O.2         1 E12      -0.4310
     22 C36         5.2208   68.8512   62.1289 C.3         1 E12       0.0189
     23 C37         4.6039   68.6864   65.0394 C.3         1 E12      -0.0032
     24 C38         6.0601   68.9172   64.5289 C.3         1 E12      -0.0041
     25 C39         6.2636   68.2889   63.1294 C.3         1 E12      -0.0310
     26 N40         4.4638   67.3070   65.5982 N.4         1 E12       0.2346
     27 C41         4.2049   67.2035   67.0448 C.3         1 E12      -0.0329
     28 C64         2.8630   59.9220   73.4881 C.3         1 E12      -0.0483
     29 C65         3.9614   61.0004   73.2513 C.3         1 E12      -0.0529
     30 C66         4.5180   61.0535   71.7803 C.3         1 E12      -0.0531
     31 C67         5.2548   62.3692   71.4144 C.3         1 E12      -0.0531
     32 C68         4.2882   63.4488   70.8585 C.3         1 E12      -0.0531
     33 C69         4.9664   64.7917   70.4798 C.3         1 E12      -0.0531
     34 C70         3.9496   65.9096   70.0953 C.3         1 E12      -0.0529
     35 C71         3.0793   65.6613   68.8208 C.3         1 E12      -0.0483
     36 C72         3.8162   65.7619   67.4523 C.3         1 E12      -0.0126
     37 H1          0.2033   54.7636   78.0890 H           1 E12       0.2526
     38 H2          2.9698   55.3407   74.4139 H           1 E12       0.0600
     39 H3          4.1346   56.1637   80.1470 H           1 E12       0.0298
     40 H4          4.4650   54.7551   79.1223 H           1 E12       0.0298
     41 H5          4.8056   56.7530   74.7569 H           1 E12       0.2022
     42 H6          5.4125   57.6645   75.9943 H           1 E12       0.2022
     43 H7          3.9133   59.1951   75.8476 H           1 E12       0.0814
     44 H8          2.6053   57.9933   75.7742 H           1 E12       0.0814
     45 H9          0.7690   54.6799   74.0986 H           1 E12       0.0298
     46 H10         2.1023   54.7115   79.5534 H           1 E12       0.0511
     47 H11         1.9238   56.4534   79.2623 H           1 E12       0.0511
     48 H12         4.9434   55.3179   76.4351 H           1 E12       0.0913
     49 H13         4.1178   57.6447   78.2134 H           1 E12       0.0333
     50 H14         5.6262   56.7427   78.2140 H           1 E12       0.0333
     51 H15         2.7325   57.7595   73.4617 H           1 E12       0.0317
     52 H16         4.3761   58.3626   73.3314 H           1 E12       0.0317
     53 H17         3.1148   69.3541   60.8548 H           1 E12       0.2526
     54 H18         1.9916   68.9193   65.3308 H           1 E12       0.0600
     55 H19         0.3331   69.3241   63.7659 H           1 E12       0.0298
     56 H20         5.5539   69.8228   61.7686 H           1 E12       0.0511
     57 H21         5.1892   68.1706   61.2780 H           1 E12       0.0511
     58 H22         4.4530   69.4467   65.8247 H           1 E12       0.0913
     59 H23         6.7816   68.4942   65.2286 H           1 E12       0.0333
     60 H24         6.2541   69.9958   64.4641 H           1 E12       0.0333
     61 H25         7.2774   68.4978   62.7731 H           1 E12       0.0298
     62 H26         6.1506   67.2049   63.2101 H           1 E12       0.0298
     63 H27         3.7062   66.8282   65.1014 H           1 E12       0.2022
     64 H28         5.3200   66.7853   65.4017 H           1 E12       0.2022
     65 H29         5.1020   67.5038   67.5849 H           1 E12       0.0814
     66 H30         3.3878   67.8695   67.3357 H           1 E12       0.0814
     67 H31         2.2062   60.2741   74.2979 H           1 E12       0.0267
     68 H32         2.2244   59.8600   72.6016 H           1 E12       0.0267
     69 H33         4.8142   60.8120   73.9224 H           1 E12       0.0265
     70 H34         3.5678   61.9919   73.5359 H           1 E12       0.0265
     71 H35         3.7097   60.8818   71.0660 H           1 E12       0.0265
     72 H36         5.2191   60.2193   71.6673 H           1 E12       0.0265
     73 H37         5.9908   62.1416   70.6379 H           1 E12       0.0265
     74 H38         5.7846   62.7494   72.2908 H           1 E12       0.0265
     75 H39         3.5073   63.6497   71.6054 H           1 E12       0.0265
     76 H40         3.8016   63.0300   69.9717 H           1 E12       0.0265
     77 H41         5.6724   64.6309   69.6650 H           1 E12       0.0265
     78 H42         5.5402   65.1462   71.3381 H           1 E12       0.0265
     79 H43         4.4952   66.8461   69.9699 H           1 E12       0.0265
     80 H44         3.2652   66.0596   70.9349 H           1 E12       0.0265
     81 H45         2.2588   66.3882   68.8265 H           1 E12       0.0267
     82 H46         2.6081   64.6782   68.8961 H           1 E12       0.0267
     83 H47         3.1368   65.3610   66.6864 H           1 E12       0.0317
     84 H48         4.7040   65.1155   67.4571 H           1 E12       0.0317
@<TRIPOS>BOND
     1     1     9   1
     2     1     3   2
     3     1     2  am
     4     2    15   1
     5    15    10   1
     6    15     4   2
     7     4    11   1
     8     4     5   1
     9     5     9   2
    10    11     7   1
    11    11    12   1
    12    12     6   1
    13     6    10   1
    14     7     8   1
    15     8    13   1
    16    13    28   1
    17    28    29   1
    18    29    30   1
    19    30    31   1
    20    31    32   1
    21    32    33   1
    22    33    34   1
    23    34    35   1
    24    35    36   1
    25    36    27   1
    26    27    26   1
    27    26    23   1
    28    23    24   1
    29    23    18   1
    30    18    19   1
    31    18    17   2
    32    17    22   1
    33    17    16   1
    34    16    14  am
    35    14    20   1
    36    14    21   2
    37    20    19   2
    38    22    25   1
    39    25    24   1
    40     2    37   1
    41     5    38   1
    42     6    39   1
    43     6    40   1
    44     7    41   1
    45     7    42   1
    46     8    43   1
    47     8    44   1
    48     9    45   1
    49    10    46   1
    50    10    47   1
    51    11    48   1
    52    12    49   1
    53    12    50   1
    54    13    51   1
    55    13    52   1
    56    16    53   1
    57    19    54   1
    58    20    55   1
    59    22    56   1
    60    22    57   1
    61    23    58   1
    62    24    59   1
    63    24    60   1
    64    25    61   1
    65    25    62   1
    66    26    63   1
    67    26    64   1
    68    27    65   1
    69    27    66   1
    70    28    67   1
    71    28    68   1
    72    29    69   1
    73    29    70   1
    74    30    71   1
    75    30    72   1
    76    31    73   1
    77    31    74   1
    78    32    75   1
    79    32    76   1
    80    33    77   1
    81    33    78   1
    82    34    79   1
    83    34    80   1
    84    35    81   1
    85    35    82   1
    86    36    83   1
    87    36    84   1
@<TRIPOS>SUBSTRUCTURE
     1  E12      1

