@<TRIPOS>MOLECULE
1h23_ligand_047
    84    87
SMALL
GAST_HUCK
****
This file was generated by PARSER (from files_GN.cpp)

@<TRIPOS>ATOM
      1 C1          2.5292   68.5113   60.8082 C.2         1 E12       0.1811
      2 N2          3.8397   68.3141   60.9406 N.am        1 E12      -0.2230
      3 O7          2.0112   68.3624   59.7163 O.2         1 E12      -0.4310
      4 C4          3.7509   68.7208   63.2541 C.2         1 E12       0.0225
      5 C5          2.4169   69.0298   63.0775 C.2         1 E12      -0.0779
      6 C14         6.6341   68.6771   63.4013 C.3         1 E12      -0.0310
      7 N17         3.6321   68.0374   65.6739 N.4         1 E12       0.2346
      8 C24         2.7825   68.8013   66.6204 C.3         1 E12      -0.0329
      9 C6          1.7989   68.9038   61.8868 C.2         1 E12      -0.0278
     10 C9          5.9159   68.2688   62.0961 C.3         1 E12       0.0189
     11 C10         4.3724   68.7791   64.6006 C.3         1 E12      -0.0032
     12 C13         5.8222   68.1965   64.6182 C.3         1 E12      -0.0041
     13 C63         2.2107   67.8959   67.7423 C.3         1 E12      -0.0126
     14 C29         3.0914   56.2110   71.4231 C.2         1 E12       0.1811
     15 C3          4.4709   68.4424   62.1259 C.2         1 E12       0.0883
     16 N30         2.5914   55.2152   72.1531 N.am        1 E12      -0.2230
     17 C31         1.6805   55.4185   73.1342 C.2         1 E12       0.0883
     18 C32         1.1959   56.6747   73.3625 C.2         1 E12       0.0225
     19 C33         1.7448   57.7073   72.6148 C.2         1 E12      -0.0779
     20 C34         2.6653   57.4832   71.6526 C.2         1 E12      -0.0278
     21 O35         3.9396   55.9699   70.5707 O.2         1 E12      -0.4310
     22 C36         1.2635   54.2314   73.8721 C.3         1 E12       0.0189
     23 C37         0.2165   56.9607   74.4373 C.3         1 E12      -0.0032
     24 C38        -0.4772   55.6801   74.9965 C.3         1 E12      -0.0041
     25 C39         0.5394   54.5386   75.2056 C.3         1 E12      -0.0310
     26 N40        -0.8788   57.8932   74.0086 N.4         1 E12       0.2346
     27 C41        -0.7401   59.3337   74.3702 C.3         1 E12      -0.0329
     28 C64         3.0768   67.8722   69.0374 C.3         1 E12      -0.0483
     29 C65         2.4792   67.0274   70.2020 C.3         1 E12      -0.0529
     30 C66         1.7208   65.7495   69.7457 C.3         1 E12      -0.0531
     31 C67         1.4227   64.7042   70.8588 C.3         1 E12      -0.0531
     32 C68         0.2031   65.0442   71.7600 C.3         1 E12      -0.0531
     33 C69        -0.0913   64.0126   72.8870 C.3         1 E12      -0.0531
     34 C70        -0.6414   62.6317   72.4177 C.3         1 E12      -0.0529
     35 C71        -1.2128   61.7889   73.5988 C.3         1 E12      -0.0483
     36 C72        -1.3975   60.2612   73.3098 C.3         1 E12      -0.0126
     37 H1          4.3687   68.0779   60.1587 H           1 E12       0.2526
     38 H2          1.8956   69.4187   63.8189 H           1 E12       0.0600
     39 H3          7.6355   68.2410   63.4173 H           1 E12       0.0298
     40 H4          6.7354   69.7642   63.4404 H           1 E12       0.0298
     41 H5          4.3264   67.5634   66.2592 H           1 E12       0.2022
     42 H6          3.0589   67.3188   65.2261 H           1 E12       0.2022
     43 H7          1.9410   69.2347   66.0886 H           1 E12       0.0814
     44 H8          3.3549   69.6254   67.0508 H           1 E12       0.0814
     45 H9          0.8427   69.1553   61.7906 H           1 E12       0.0298
     46 H10         6.3351   68.8735   61.2905 H           1 E12       0.0511
     47 H11         6.1333   67.2225   61.8739 H           1 E12       0.0511
     48 H12         4.4597   69.8387   64.8699 H           1 E12       0.0913
     49 H13         5.7910   67.1026   64.5986 H           1 E12       0.0333
     50 H14         6.3411   68.4913   65.5318 H           1 E12       0.0333
     51 H15         2.1092   66.8808   67.3402 H           1 E12       0.0317
     52 H16         1.2123   68.2652   68.0004 H           1 E12       0.0317
     53 H17         2.9049   54.3073   71.9912 H           1 E12       0.2526
     54 H18         1.4566   58.6450   72.7710 H           1 E12       0.0600
     55 H19         3.0343   58.2427   71.1256 H           1 E12       0.0298
     56 H20         2.1363   53.6107   74.1005 H           1 E12       0.0511
     57 H21         0.6031   53.6479   73.2241 H           1 E12       0.0511
     58 H22         0.7882   57.3946   75.2686 H           1 E12       0.0913
     59 H23        -1.2441   55.3341   74.2951 H           1 E12       0.0333
     60 H24        -0.9627   55.9139   75.9478 H           1 E12       0.0333
     61 H25         1.2724   54.8347   75.9635 H           1 E12       0.0298
     62 H26         0.0251   53.6426   75.5628 H           1 E12       0.0298
     63 H27        -0.9794   57.8109   72.9930 H           1 E12       0.2022
     64 H28        -1.7563   57.5720   74.4324 H           1 E12       0.2022
     65 H29        -1.2261   59.5006   75.3407 H           1 E12       0.0814
     66 H30         0.3149   59.6115   74.4717 H           1 E12       0.0814
     67 H31         3.1858   68.8985   69.4080 H           1 E12       0.0267
     68 H32         4.0761   67.4907   68.7969 H           1 E12       0.0267
     69 H33         1.7914   67.6485   70.7841 H           1 E12       0.0265
     70 H34         3.3035   66.7408   70.8641 H           1 E12       0.0265
     71 H35         2.3204   65.2495   68.9787 H           1 E12       0.0265
     72 H36         0.7760   66.0543   69.2858 H           1 E12       0.0265
     73 H37         2.3143   64.5703   71.4790 H           1 E12       0.0265
     74 H38         1.2177   63.7546   70.3568 H           1 E12       0.0265
     75 H39        -0.6906   65.1541   71.1396 H           1 E12       0.0265
     76 H40         0.3816   66.0085   72.2423 H           1 E12       0.0265
     77 H41        -0.8251   64.4669   73.5593 H           1 E12       0.0265
     78 H42         0.8244   63.8442   73.4653 H           1 E12       0.0265
     79 H43         0.1754   62.0791   71.9467 H           1 E12       0.0265
     80 H44        -1.4287   62.7761   71.6718 H           1 E12       0.0265
     81 H45        -2.1787   62.2141   73.8852 H           1 E12       0.0267
     82 H46        -0.5571   61.9220   74.4605 H           1 E12       0.0267
     83 H47        -0.9786   60.0193   72.3301 H           1 E12       0.0317
     84 H48        -2.4654   60.0268   73.2645 H           1 E12       0.0317
@<TRIPOS>BOND
     1     1     9   1
     2     1     3   2
     3     1     2  am
     4     2    15   1
     5    15    10   1
     6    15     4   2
     7     4    11   1
     8     4     5   1
     9     5     9   2
    10    11     7   1
    11    11    12   1
    12    12     6   1
    13     6    10   1
    14     7     8   1
    15     8    13   1
    16    13    28   1
    17    28    29   1
    18    29    30   1
    19    30    31   1
    20    31    32   1
    21    32    33   1
    22    33    34   1
    23    34    35   1
    24    35    36   1
    25    36    27   1
    26    27    26   1
    27    26    23   1
    28    23    24   1
    29    23    18   1
    30    18    19   1
    31    18    17   2
    32    17    22   1
    33    17    16   1
    34    16    14  am
    35    14    20   1
    36    14    21   2
    37    20    19   2
    38    22    25   1
    39    25    24   1
    40     2    37   1
    41     5    38   1
    42     6    39   1
    43     6    40   1
    44     7    41   1
    45     7    42   1
    46     8    43   1
    47     8    44   1
    48     9    45   1
    49    10    46   1
    50    10    47   1
    51    11    48   1
    52    12    49   1
    53    12    50   1
    54    13    51   1
    55    13    52   1
    56    16    53   1
    57    19    54   1
    58    20    55   1
    59    22    56   1
    60    22    57   1
    61    23    58   1
    62    24    59   1
    63    24    60   1
    64    25    61   1
    65    25    62   1
    66    26    63   1
    67    26    64   1
    68    27    65   1
    69    27    66   1
    70    28    67   1
    71    28    68   1
    72    29    69   1
    73    29    70   1
    74    30    71   1
    75    30    72   1
    76    31    73   1
    77    31    74   1
    78    32    75   1
    79    32    76   1
    80    33    77   1
    81    33    78   1
    82    34    79   1
    83    34    80   1
    84    35    81   1
    85    35    82   1
    86    36    83   1
    87    36    84   1
@<TRIPOS>SUBSTRUCTURE
     1  E12      1

