@<TRIPOS>MOLECULE
1h23_ligand_076
    84    87
SMALL
GAST_HUCK
****
This file was generated by PARSER (from files_GN.cpp)

@<TRIPOS>ATOM
      1 C1          4.8284   65.1023   64.5305 C.2         1 E12       0.1811
      2 N2          5.4494   66.2572   64.7787 N.am        1 E12      -0.2230
      3 O7          4.9108   64.1868   65.3352 O.2         1 E12      -0.4310
      4 C4          4.6268   67.2280   62.8026 C.2         1 E12       0.0225
      5 C5          4.0203   66.0179   62.5298 C.2         1 E12      -0.0779
      6 C14         5.9160   69.7551   63.4282 C.3         1 E12      -0.0310
      7 N17         3.1981   69.1360   62.0252 N.4         1 E12       0.2346
      8 C24         1.8814   68.4564   62.0444 C.3         1 E12      -0.0329
      9 C6          4.1111   64.9684   63.3776 C.2         1 E12      -0.0278
     10 C9          6.1814   68.4906   64.2871 C.3         1 E12       0.0189
     11 C10         4.4605   68.3536   61.8646 C.3         1 E12      -0.0032
     12 C13         5.6585   69.3568   61.9551 C.3         1 E12      -0.0041
     13 C63         1.4962   67.9715   63.4753 C.3         1 E12      -0.0126
     14 C29         3.9624   57.5713   70.8130 C.2         1 E12       0.1811
     15 C3          5.3704   67.3248   63.9454 C.2         1 E12       0.0883
     16 N30         3.9229   57.8992   72.1019 N.am        1 E12      -0.2230
     17 C31         3.4138   59.0744   72.5407 C.2         1 E12       0.0883
     18 C32         2.8636   59.9469   71.6449 C.2         1 E12       0.0225
     19 C33         2.9429   59.6148   70.3043 C.2         1 E12      -0.0779
     20 C34         3.4689   58.4445   69.8880 C.2         1 E12      -0.0278
     21 O35         4.4519   56.5003   70.4875 O.2         1 E12      -0.4310
     22 C36         3.4961   59.3234   73.9747 C.3         1 E12       0.0189
     23 C37         2.2850   61.2469   72.0540 C.3         1 E12      -0.0032
     24 C38         2.1035   61.3974   73.5978 C.3         1 E12      -0.0041
     25 C39         3.3081   60.8095   74.3634 C.3         1 E12      -0.0310
     26 N40         0.9510   61.5180   71.4327 N.4         1 E12       0.2346
     27 C41         0.8685   62.3718   70.2103 C.3         1 E12      -0.0329
     28 C64         0.1556   68.5307   64.0300 C.3         1 E12      -0.0483
     29 C65        -0.0291   68.1502   65.5308 C.3         1 E12      -0.0529
     30 C66        -1.3854   68.5899   66.1541 C.3         1 E12      -0.0531
     31 C67        -1.8635   67.6731   67.3162 C.3         1 E12      -0.0531
     32 C68        -0.8298   67.4404   68.4518 C.3         1 E12      -0.0531
     33 C69        -1.3977   66.5062   69.5614 C.3         1 E12      -0.0531
     34 C70        -0.3963   66.1548   70.7001 C.3         1 E12      -0.0529
     35 C71         0.5684   64.9675   70.4113 C.3         1 E12      -0.0483
     36 C72        -0.1214   63.5717   70.3634 C.3         1 E12      -0.0126
     37 H1          5.9669   66.3364   65.5981 H           1 E12       0.2526
     38 H2          3.4850   65.9147   61.6958 H           1 E12       0.0600
     39 H3          5.0466   70.2795   63.8267 H           1 E12       0.0298
     40 H4          6.7730   70.4289   63.5027 H           1 E12       0.0298
     41 H5          3.1718   69.8066   61.2482 H           1 E12       0.2022
     42 H6          3.2696   69.6811   62.8899 H           1 E12       0.2022
     43 H7          1.8895   67.6086   61.3435 H           1 E12       0.0814
     44 H8          1.1442   69.1825   61.6854 H           1 E12       0.0814
     45 H9          3.6639   64.1057   63.1588 H           1 E12       0.0298
     46 H10         7.2329   68.1953   64.1732 H           1 E12       0.0511
     47 H11         6.0181   68.7391   65.3429 H           1 E12       0.0511
     48 H12         4.4794   67.9749   60.8407 H           1 E12       0.0913
     49 H13         5.4674   70.2580   61.3680 H           1 E12       0.0333
     50 H14         6.5693   68.8932   61.5598 H           1 E12       0.0333
     51 H15         2.2869   68.2475   64.1837 H           1 E12       0.0317
     52 H16         1.4329   66.8798   63.4739 H           1 E12       0.0317
     53 H17         4.2983   57.2757   72.7458 H           1 E12       0.2526
     54 H18         2.6207   60.2487   69.6121 H           1 E12       0.0600
     55 H19         3.5091   58.2355   68.9178 H           1 E12       0.0298
     56 H20         4.4719   59.0014   74.3506 H           1 E12       0.0511
     57 H21         2.7325   58.7171   74.4691 H           1 E12       0.0511
     58 H22         3.0028   62.0187   71.7561 H           1 E12       0.0913
     59 H23         1.1994   60.8735   73.9245 H           1 E12       0.0333
     60 H24         1.9916   62.4540   73.8563 H           1 E12       0.0333
     61 H25         4.2103   61.3727   74.1094 H           1 E12       0.0298
     62 H26         3.1445   60.8914   75.4408 H           1 E12       0.0298
     63 H27         0.5215   60.6147   71.2089 H           1 E12       0.2022
     64 H28         0.3610   61.9516   72.1462 H           1 E12       0.2022
     65 H29         1.8520   62.7338   69.8986 H           1 E12       0.0814
     66 H30         0.5115   61.7338   69.4001 H           1 E12       0.0814
     67 H31        -0.6676   68.1154   63.4349 H           1 E12       0.0267
     68 H32         0.1431   69.6225   63.9259 H           1 E12       0.0267
     69 H33         0.7760   68.6214   66.1059 H           1 E12       0.0265
     70 H34         0.0842   67.0615   65.6447 H           1 E12       0.0265
     71 H35        -2.1626   68.5734   65.3817 H           1 E12       0.0265
     72 H36        -1.2993   69.6214   66.5117 H           1 E12       0.0265
     73 H37        -2.1362   66.7009   66.8934 H           1 E12       0.0265
     74 H38        -2.7723   68.1121   67.7411 H           1 E12       0.0265
     75 H39        -0.5574   68.4062   68.8927 H           1 E12       0.0265
     76 H40         0.0720   66.9920   68.0194 H           1 E12       0.0265
     77 H41        -1.7643   65.5821   69.1058 H           1 E12       0.0265
     78 H42        -2.2627   67.0032   70.0100 H           1 E12       0.0265
     79 H43        -0.9626   65.9192   71.6052 H           1 E12       0.0265
     80 H44         0.2025   67.0420   70.9278 H           1 E12       0.0265
     81 H45         1.3224   64.9474   71.2046 H           1 E12       0.0267
     82 H46         1.0891   65.1489   69.4686 H           1 E12       0.0267
     83 H47        -0.8155   63.5575   69.5161 H           1 E12       0.0317
     84 H48        -0.7208   63.4448   71.2696 H           1 E12       0.0317
@<TRIPOS>BOND
     1     1     9   1
     2     1     3   2
     3     1     2  am
     4     2    15   1
     5    15    10   1
     6    15     4   2
     7     4    11   1
     8     4     5   1
     9     5     9   2
    10    11     7   1
    11    11    12   1
    12    12     6   1
    13     6    10   1
    14     7     8   1
    15     8    13   1
    16    13    28   1
    17    28    29   1
    18    29    30   1
    19    30    31   1
    20    31    32   1
    21    32    33   1
    22    33    34   1
    23    34    35   1
    24    35    36   1
    25    36    27   1
    26    27    26   1
    27    26    23   1
    28    23    24   1
    29    23    18   1
    30    18    19   1
    31    18    17   2
    32    17    22   1
    33    17    16   1
    34    16    14  am
    35    14    20   1
    36    14    21   2
    37    20    19   2
    38    22    25   1
    39    25    24   1
    40     2    37   1
    41     5    38   1
    42     6    39   1
    43     6    40   1
    44     7    41   1
    45     7    42   1
    46     8    43   1
    47     8    44   1
    48     9    45   1
    49    10    46   1
    50    10    47   1
    51    11    48   1
    52    12    49   1
    53    12    50   1
    54    13    51   1
    55    13    52   1
    56    16    53   1
    57    19    54   1
    58    20    55   1
    59    22    56   1
    60    22    57   1
    61    23    58   1
    62    24    59   1
    63    24    60   1
    64    25    61   1
    65    25    62   1
    66    26    63   1
    67    26    64   1
    68    27    65   1
    69    27    66   1
    70    28    67   1
    71    28    68   1
    72    29    69   1
    73    29    70   1
    74    30    71   1
    75    30    72   1
    76    31    73   1
    77    31    74   1
    78    32    75   1
    79    32    76   1
    80    33    77   1
    81    33    78   1
    82    34    79   1
    83    34    80   1
    84    35    81   1
    85    35    82   1
    86    36    83   1
    87    36    84   1
@<TRIPOS>SUBSTRUCTURE
     1  E12      1

