@<TRIPOS>MOLECULE
1hfs_ligand_051
    99   103
SMALL
GAST_HUCK
****
This file was generated by PARSER (from files_GN.cpp)

@<TRIPOS>ATOM
      1 C1         33.6536   37.4835   22.7294 C.3         1 L04      -0.0384
      2 C2         32.7544   38.2698   23.7451 C.3         1 L04       0.0141
      3 C3         32.0031   37.3397   24.6262 C.2         1 L04       0.0380
      4 C4         25.4381   37.0209   21.0611 C.3         1 L04      -0.0625
      5 C5         37.8712   40.9944   21.7046 C.ar        1 L04      -0.0257
      6 C6         39.0224   41.7771   21.9615 C.ar        1 L04      -0.0571
      7 C7         30.9450   40.2106   23.9682 C.3         1 L04       0.0523
      8 C8         31.6411   41.5998   24.2030 C.3         1 L04      -0.0232
      9 C9         33.0646   41.6311   24.8430 C.3         1 L04      -0.0166
     10 C10        34.2736   41.4375   23.9835 C.ar        1 L04      -0.0424
     11 C11        34.3280   41.8360   22.6251 C.ar        1 L04      -0.0596
     12 C12        35.5049   41.6739   21.8640 C.ar        1 L04      -0.0610
     13 C13        36.6858   41.1757   22.4622 C.ar        1 L04      -0.0267
     14 C14        36.6575   40.8469   23.8350 C.ar        1 L04      -0.0610
     15 C15        35.4687   40.9626   24.5741 C.ar        1 L04      -0.0596
     16 C16        29.5327   40.3514   23.5486 C.2         1 L04       0.1816
     17 C17        40.2144   41.5572   21.2445 C.ar        1 L04      -0.0282
     18 C18        31.7496   39.2386   23.0260 C.3         1 L04      -0.0186
     19 C19        27.2362   39.4164   23.7351 C.3         1 L04       0.1369
     20 C20        26.5162   38.2077   23.0445 C.3         1 L04      -0.0096
     21 C21        26.3675   38.1990   21.4879 C.3         1 L04      -0.0425
     22 C22        25.8140   39.5294   20.9025 C.3         1 L04      -0.0625
     23 C23        34.7150   36.5149   23.3509 C.3         1 L04      -0.0495
     24 C24        36.1476   37.0873   23.5985 C.3         1 L04      -0.0323
     25 C25        37.1808   36.8244   22.4605 C.3         1 L04       0.0356
     26 C26        39.4242   35.8508   22.8435 C.2         1 L04       0.2046
     27 C27        26.8996   39.5840   25.1512 C.2         1 L04       0.2292
     28 C28        39.1860   38.0376   23.4513 C.3         1 L04       0.0703
     29 C29        40.6452   36.2324   23.3092 C.ar        1 L04       0.0535
     30 C30        25.9864   38.6255   27.2008 C.ar        1 L04       0.0663
     31 C31        26.6109   39.3538   28.2429 C.ar        1 L04      -0.0413
     32 C32        26.0797   39.3452   29.5464 C.ar        1 L04      -0.0755
     33 C33        24.9249   38.5924   29.8304 C.ar        1 L04      -0.0772
     34 C34        24.3086   37.8473   28.8129 C.ar        1 L04      -0.0755
     35 C35        24.8406   37.8556   27.5094 C.ar        1 L04      -0.0413
     36 C36        40.5543   37.5696   23.6821 C.ar        1 L04      -0.0003
     37 C37        41.8540   35.5220   23.4487 C.ar        1 L04      -0.0484
     38 C38        41.6778   38.2511   24.1910 C.ar        1 L04      -0.0524
     39 C39        42.8940   37.5515   24.3354 C.ar        1 L04      -0.0641
     40 C40        42.9812   36.1911   23.9673 C.ar        1 L04      -0.0630
     41 C41        40.2796   40.5304   20.2858 C.ar        1 L04       0.1322
     42 C42        39.1446   39.7436   20.0258 C.ar        1 L04      -0.0282
     43 C43        37.9467   39.9725   20.7279 C.ar        1 L04      -0.0571
     44 N1         38.5592   36.8616   22.9100 N.am        1 L04      -0.2613
     45 N18        28.6802   39.3329   23.6876 N.am        1 L04      -0.2649
     46 N29        26.4180   38.5935   25.9037 N.am        1 L04      -0.2320
     47 O1         39.1975   34.7303   22.4117 O.2         1 L04      -0.3882
     48 O4         30.9512   36.6302   24.1647 O.co2       1 L04      -0.5687
     49 O5         32.3848   37.1444   25.9091 O.co2       1 L04      -0.5687
     50 O17        29.1153   41.4421   23.1779 O.2         1 L04      -0.3966
     51 O28        27.0372   40.7108   25.6183 O.2         1 L04      -0.3823
     52 F1         41.3967   40.3000   19.6493 F           1 L04      -0.1835
     53 H1         32.9912   36.8971   22.0853 H           1 L04       0.0286
     54 H2         34.1677   38.1984   22.0824 H           1 L04       0.0286
     55 H3         33.4246   38.8642   24.3699 H           1 L04       0.0467
     56 H4         25.3742   36.9572   19.9741 H           1 L04       0.0232
     57 H5         24.4280   37.1573   21.4554 H           1 L04       0.0232
     58 H6         25.8232   36.0721   21.4364 H           1 L04       0.0232
     59 H7         39.0005   42.5051   22.6783 H           1 L04       0.0606
     60 H8         30.9010   39.7634   24.9660 H           1 L04       0.0541
     61 H9         30.9982   42.1648   24.8850 H           1 L04       0.0315
     62 H10        31.6553   42.1605   23.2661 H           1 L04       0.0315
     63 H11        33.0643   40.9060   25.6628 H           1 L04       0.0430
     64 H12        33.2036   42.6087   25.3093 H           1 L04       0.0430
     65 H13        33.5067   42.2460   22.1709 H           1 L04       0.0559
     66 H14        35.5057   41.9466   20.8779 H           1 L04       0.0604
     67 H15        37.4997   40.5040   24.3020 H           1 L04       0.0604
     68 H16        35.4843   40.6976   25.5628 H           1 L04       0.0559
     69 H17        41.0331   42.1396   21.4289 H           1 L04       0.0604
     70 H18        31.0618   38.6212   22.4409 H           1 L04       0.0313
     71 H19        32.2943   39.8326   22.2898 H           1 L04       0.0313
     72 H20        26.8768   40.3112   23.2185 H           1 L04       0.0805
     73 H21        25.5015   38.1417   23.4542 H           1 L04       0.0315
     74 H22        27.0429   37.2958   23.3404 H           1 L04       0.0315
     75 H23        27.3574   38.0280   21.0527 H           1 L04       0.0298
     76 H24        26.5618   40.3193   20.9785 H           1 L04       0.0232
     77 H25        24.9163   39.8379   21.4395 H           1 L04       0.0232
     78 H26        25.5576   39.4165   19.8466 H           1 L04       0.0232
     79 H27        34.7951   35.6383   22.7016 H           1 L04       0.0267
     80 H28        34.3400   36.1399   24.3059 H           1 L04       0.0267
     81 H29        36.5354   36.6209   24.5101 H           1 L04       0.0285
     82 H30        36.0803   38.1590   23.7915 H           1 L04       0.0285
     83 H31        37.0421   37.5657   21.6679 H           1 L04       0.0523
     84 H32        36.9647   35.8488   22.0135 H           1 L04       0.0523
     85 H33        38.7211   38.3488   24.3901 H           1 L04       0.0699
     86 H34        39.1834   38.8548   22.7304 H           1 L04       0.0699
     87 H35        27.4671   39.8812   28.0693 H           1 L04       0.0502
     88 H36        26.5299   39.8855   30.2888 H           1 L04       0.0577
     89 H37        24.5379   38.5851   30.7789 H           1 L04       0.0487
     90 H38        23.4641   37.3080   29.0170 H           1 L04       0.0577
     91 H39        24.3690   37.3158   26.7802 H           1 L04       0.0502
     92 H40        41.9150   34.5366   23.1852 H           1 L04       0.0651
     93 H41        41.6162   39.2347   24.4554 H           1 L04       0.0569
     94 H42        43.7165   38.0291   24.7116 H           1 L04       0.0635
     95 H43        43.8639   35.6883   24.0830 H           1 L04       0.0572
     96 H44        39.1881   38.9980   19.3317 H           1 L04       0.0604
     97 H45        37.1440   39.3652   20.5478 H           1 L04       0.0606
     98 H46        29.0621   38.4905   23.9820 H           1 L04       0.1883
     99 H47        26.2664   37.7504   25.4482 H           1 L04       0.2257
@<TRIPOS>BOND
     1     1    23   1
     2     1     2   1
     3     2    18   1
     4     2     3   1
     5     3    49  ar
     6     3    48  ar
     7    18     7   1
     8     7    16   1
     9     7     8   1
    10     8     9   1
    11     9    10   1
    12    10    15  ar
    13    10    11  ar
    14    11    12  ar
    15    12    13  ar
    16    13    14  ar
    17    13     5   1
    18     5    43  ar
    19     5     6  ar
    20     6    17  ar
    21    17    41  ar
    22    41    42  ar
    23    42    43  ar
    24    14    15  ar
    25    16    50   2
    26    16    45  am
    27    45    19   1
    28    19    27   1
    29    19    20   1
    30    20    21   1
    31    21     4   1
    32    21    22   1
    33    27    51   2
    34    27    46  am
    35    46    30   1
    36    30    35  ar
    37    30    31  ar
    38    31    32  ar
    39    32    33  ar
    40    33    34  ar
    41    34    35  ar
    42    23    24   1
    43    24    25   1
    44    25    44   1
    45    44    28   1
    46    44    26  am
    47    26    47   2
    48    26    29   1
    49    29    37  ar
    50    29    36  ar
    51    36    28   1
    52    36    38  ar
    53    38    39  ar
    54    39    40  ar
    55    40    37  ar
    56    41    52   1
    57     1    53   1
    58     1    54   1
    59     2    55   1
    60     4    56   1
    61     4    57   1
    62     4    58   1
    63     6    59   1
    64     7    60   1
    65     8    61   1
    66     8    62   1
    67     9    63   1
    68     9    64   1
    69    11    65   1
    70    12    66   1
    71    14    67   1
    72    15    68   1
    73    17    69   1
    74    18    70   1
    75    18    71   1
    76    19    72   1
    77    20    73   1
    78    20    74   1
    79    21    75   1
    80    22    76   1
    81    22    77   1
    82    22    78   1
    83    23    79   1
    84    23    80   1
    85    24    81   1
    86    24    82   1
    87    25    83   1
    88    25    84   1
    89    28    85   1
    90    28    86   1
    91    31    87   1
    92    32    88   1
    93    33    89   1
    94    34    90   1
    95    35    91   1
    96    37    92   1
    97    38    93   1
    98    39    94   1
    99    40    95   1
   100    42    96   1
   101    43    97   1
   102    45    98   1
   103    46    99   1
@<TRIPOS>SUBSTRUCTURE
     1  L04      1

