@<TRIPOS>MOLECULE
1hfs_ligand_060
    99   103
SMALL
GAST_HUCK
****
This file was generated by PARSER (from files_GN.cpp)

@<TRIPOS>ATOM
      1 C1         29.9097   41.6115   27.4283 C.3         1 L04      -0.0384
      2 C2         30.0092   40.9278   26.0214 C.3         1 L04       0.0141
      3 C3         29.0819   41.5710   25.0618 C.2         1 L04       0.0380
      4 C4         24.9270   37.1111   21.8404 C.3         1 L04      -0.0625
      5 C5         36.0563   33.5939   27.3627 C.ar        1 L04      -0.0257
      6 C6         37.3671   33.8565   27.8391 C.ar        1 L04      -0.0571
      7 C7         30.1484   38.5895   24.7633 C.3         1 L04       0.0523
      8 C8         31.1169   37.3777   25.0144 C.3         1 L04      -0.0232
      9 C9         32.6143   37.7771   25.2066 C.3         1 L04      -0.0166
     10 C10        33.4985   36.6986   25.7496 C.ar        1 L04      -0.0424
     11 C11        33.4616   35.3780   25.2448 C.ar        1 L04      -0.0596
     12 C12        34.2997   34.3713   25.7673 C.ar        1 L04      -0.0610
     13 C13        35.2254   34.6347   26.8083 C.ar        1 L04      -0.0267
     14 C14        35.2877   35.9736   27.2762 C.ar        1 L04      -0.0610
     15 C15        34.4421   36.9788   26.7632 C.ar        1 L04      -0.0596
     16 C16        28.9484   38.1999   24.0107 C.2         1 L04       0.1816
     17 C17        38.1645   32.8465   28.4175 C.ar        1 L04      -0.0282
     18 C18        29.8022   39.3741   26.0834 C.3         1 L04      -0.0186
     19 C19        27.6571   38.6728   21.9363 C.3         1 L04       0.1369
     20 C20        26.2550   39.4002   21.9375 C.3         1 L04      -0.0096
     21 C21        24.9595   38.5927   22.3159 C.3         1 L04      -0.0425
     22 C22        24.6060   38.6993   23.8269 C.3         1 L04      -0.0625
     23 C23        30.7134   42.9430   27.5677 C.3         1 L04      -0.0495
     24 C24        30.4184   43.7817   28.8490 C.3         1 L04      -0.0323
     25 C25        30.6235   43.0548   30.2170 C.3         1 L04       0.0356
     26 C26        32.9810   43.5673   30.7399 C.2         1 L04       0.2046
     27 C27        28.3988   38.9235   20.6963 C.2         1 L04       0.2292
     28 C28        31.5018   43.7156   32.4797 C.3         1 L04       0.0703
     29 C29        33.7438   43.7377   31.8572 C.ar        1 L04       0.0535
     30 C30        30.3274   39.9781   19.6001 C.ar        1 L04       0.0663
     31 C31        31.2718   40.9972   19.8504 C.ar        1 L04      -0.0413
     32 C32        32.1543   41.4249   18.8440 C.ar        1 L04      -0.0755
     33 C33        32.1060   40.8355   17.5714 C.ar        1 L04      -0.0772
     34 C34        31.1937   39.8015   17.3100 C.ar        1 L04      -0.0755
     35 C35        30.3167   39.3665   18.3188 C.ar        1 L04      -0.0413
     36 C36        32.8808   43.8265   32.9449 C.ar        1 L04      -0.0003
     37 C37        35.1393   43.7759   32.0525 C.ar        1 L04      -0.0484
     38 C38        33.3691   43.9584   34.2590 C.ar        1 L04      -0.0524
     39 C39        34.7633   43.9929   34.4640 C.ar        1 L04      -0.0641
     40 C40        35.6453   43.9054   33.3650 C.ar        1 L04      -0.0630
     41 C41        37.6824   31.5302   28.5035 C.ar        1 L04       0.1322
     42 C42        36.4000   31.2341   28.0167 C.ar        1 L04      -0.0282
     43 C43        35.5964   32.2531   27.4670 C.ar        1 L04      -0.0571
     44 N1         31.6926   43.5185   31.0673 N.am        1 L04      -0.2613
     45 N18        28.4569   39.0203   23.0857 N.am        1 L04      -0.2649
     46 N29        29.5297   39.6353   20.6523 N.am        1 L04      -0.2320
     47 O1         33.4526   43.3692   29.6286 O.2         1 L04      -0.3882
     48 O4         29.4925   42.6249   24.3209 O.co2       1 L04      -0.5687
     49 O5         27.7558   41.3214   25.1370 O.co2       1 L04      -0.5687
     50 O17        28.4883   37.0694   24.1373 O.2         1 L04      -0.3966
     51 O28        27.8811   38.5074   19.6640 O.2         1 L04      -0.3823
     52 F1         38.4185   30.5909   29.0310 F           1 L04      -0.1835
     53 H1         28.8618   41.7819   27.6894 H           1 L04       0.0286
     54 H2         30.3105   40.9143   28.1642 H           1 L04       0.0286
     55 H3         31.0305   41.0880   25.6587 H           1 L04       0.0467
     56 H4         23.9273   36.7003   21.9750 H           1 L04       0.0232
     57 H5         25.6102   36.4951   22.4257 H           1 L04       0.0232
     58 H6         25.1901   37.0371   20.7788 H           1 L04       0.0232
     59 H7         37.7640   34.7943   27.7596 H           1 L04       0.0606
     60 H8         30.7180   39.2614   24.1084 H           1 L04       0.0541
     61 H9         31.0741   36.6995   24.1562 H           1 L04       0.0315
     62 H10        30.7730   36.8152   25.8864 H           1 L04       0.0315
     63 H11        32.6561   38.6574   25.8536 H           1 L04       0.0430
     64 H12        33.0165   38.0883   24.2395 H           1 L04       0.0430
     65 H13        32.8161   35.1341   24.4922 H           1 L04       0.0559
     66 H14        34.2378   33.4364   25.3585 H           1 L04       0.0604
     67 H15        35.9355   36.2290   28.0238 H           1 L04       0.0604
     68 H16        34.5259   37.9281   27.1358 H           1 L04       0.0559
     69 H17        39.0969   33.0691   28.7732 H           1 L04       0.0604
     70 H18        28.7840   39.1475   26.4154 H           1 L04       0.0313
     71 H19        30.4533   39.0112   26.8801 H           1 L04       0.0313
     72 H20        27.4805   37.6017   21.9515 H           1 L04       0.0805
     73 H21        26.0613   39.8087   20.9392 H           1 L04       0.0315
     74 H22        26.3229   40.2730   22.5949 H           1 L04       0.0315
     75 H23        24.1202   39.0766   21.7970 H           1 L04       0.0298
     76 H24        24.3659   39.7360   24.0773 H           1 L04       0.0232
     77 H25        25.4437   38.3759   24.4479 H           1 L04       0.0232
     78 H26        23.7279   38.0903   24.0643 H           1 L04       0.0232
     79 H27        30.4930   43.5752   26.7044 H           1 L04       0.0267
     80 H28        31.7818   42.7140   27.5366 H           1 L04       0.0267
     81 H29        29.3807   44.1246   28.7819 H           1 L04       0.0285
     82 H30        31.0387   44.6805   28.8235 H           1 L04       0.0285
     83 H31        30.8107   41.9962   30.0581 H           1 L04       0.0523
     84 H32        29.6752   43.1106   30.7626 H           1 L04       0.0523
     85 H33        31.0211   42.8535   32.9470 H           1 L04       0.0699
     86 H34        30.9333   44.6256   32.6886 H           1 L04       0.0699
     87 H35        31.3124   41.4419   20.7729 H           1 L04       0.0502
     88 H36        32.8283   42.1663   19.0446 H           1 L04       0.0577
     89 H37        32.7426   41.1538   16.8401 H           1 L04       0.0487
     90 H38        31.1715   39.3586   16.3915 H           1 L04       0.0577
     91 H39        29.6941   38.5898   18.1011 H           1 L04       0.0502
     92 H40        35.7783   43.7047   31.2582 H           1 L04       0.0651
     93 H41        32.7246   44.0072   35.0528 H           1 L04       0.0569
     94 H42        35.1375   44.0803   35.4123 H           1 L04       0.0635
     95 H43        36.6556   43.9259   33.5213 H           1 L04       0.0572
     96 H44        36.0474   30.2767   28.0704 H           1 L04       0.0604
     97 H45        34.6550   32.0041   27.1583 H           1 L04       0.0606
     98 H46        28.8099   39.9229   23.0849 H           1 L04       0.1883
     99 H47        29.8085   40.0111   21.5019 H           1 L04       0.2257
@<TRIPOS>BOND
     1     1    23   1
     2     1     2   1
     3     2    18   1
     4     2     3   1
     5     3    49  ar
     6     3    48  ar
     7    18     7   1
     8     7    16   1
     9     7     8   1
    10     8     9   1
    11     9    10   1
    12    10    15  ar
    13    10    11  ar
    14    11    12  ar
    15    12    13  ar
    16    13    14  ar
    17    13     5   1
    18     5    43  ar
    19     5     6  ar
    20     6    17  ar
    21    17    41  ar
    22    41    42  ar
    23    42    43  ar
    24    14    15  ar
    25    16    50   2
    26    16    45  am
    27    45    19   1
    28    19    27   1
    29    19    20   1
    30    20    21   1
    31    21     4   1
    32    21    22   1
    33    27    51   2
    34    27    46  am
    35    46    30   1
    36    30    35  ar
    37    30    31  ar
    38    31    32  ar
    39    32    33  ar
    40    33    34  ar
    41    34    35  ar
    42    23    24   1
    43    24    25   1
    44    25    44   1
    45    44    28   1
    46    44    26  am
    47    26    47   2
    48    26    29   1
    49    29    37  ar
    50    29    36  ar
    51    36    28   1
    52    36    38  ar
    53    38    39  ar
    54    39    40  ar
    55    40    37  ar
    56    41    52   1
    57     1    53   1
    58     1    54   1
    59     2    55   1
    60     4    56   1
    61     4    57   1
    62     4    58   1
    63     6    59   1
    64     7    60   1
    65     8    61   1
    66     8    62   1
    67     9    63   1
    68     9    64   1
    69    11    65   1
    70    12    66   1
    71    14    67   1
    72    15    68   1
    73    17    69   1
    74    18    70   1
    75    18    71   1
    76    19    72   1
    77    20    73   1
    78    20    74   1
    79    21    75   1
    80    22    76   1
    81    22    77   1
    82    22    78   1
    83    23    79   1
    84    23    80   1
    85    24    81   1
    86    24    82   1
    87    25    83   1
    88    25    84   1
    89    28    85   1
    90    28    86   1
    91    31    87   1
    92    32    88   1
    93    33    89   1
    94    34    90   1
    95    35    91   1
    96    37    92   1
    97    38    93   1
    98    39    94   1
    99    40    95   1
   100    42    96   1
   101    43    97   1
   102    45    98   1
   103    46    99   1
@<TRIPOS>SUBSTRUCTURE
     1  L04      1

