@<TRIPOS>MOLECULE
1hfs_ligand_027
    99   103
SMALL
GAST_HUCK
****
This file was generated by PARSER (from files_GN.cpp)

@<TRIPOS>ATOM
      1 C1         28.8501   40.8808   27.6240 C.3         1 L04      -0.0384
      2 C2         29.6715   41.2222   26.3260 C.3         1 L04       0.0141
      3 C3         30.0543   42.6571   26.2780 C.2         1 L04       0.0380
      4 C4         24.4410   39.3932   20.5093 C.3         1 L04      -0.0625
      5 C5         37.3436   40.7487   21.1316 C.ar        1 L04      -0.0257
      6 C6         38.3369   41.7262   21.3936 C.ar        1 L04      -0.0571
      7 C7         29.6507   40.7885   23.6126 C.3         1 L04       0.0523
      8 C8         31.2203   40.8237   23.5362 C.3         1 L04      -0.0232
      9 C9         31.7468   41.5858   22.2817 C.3         1 L04      -0.0166
     10 C10        33.1929   41.3887   21.9871 C.ar        1 L04      -0.0424
     11 C11        33.6275   41.0880   20.6753 C.ar        1 L04      -0.0596
     12 C12        34.9919   40.9067   20.3932 C.ar        1 L04      -0.0610
     13 C13        35.9675   41.0010   21.4129 C.ar        1 L04      -0.0267
     14 C14        35.5323   41.3310   22.7196 C.ar        1 L04      -0.0610
     15 C15        34.1698   41.5329   23.0001 C.ar        1 L04      -0.0596
     16 C16        29.1511   39.7800   22.6654 C.2         1 L04       0.1816
     17 C17        39.6919   41.4734   21.1058 C.ar        1 L04      -0.0282
     18 C18        29.0192   40.5882   25.0396 C.3         1 L04      -0.0186
     19 C19        28.4218   39.2336   20.3523 C.3         1 L04       0.1369
     20 C20        26.9257   39.2914   19.9179 C.3         1 L04      -0.0096
     21 C21        25.8648   39.0793   21.0462 C.3         1 L04      -0.0425
     22 C22        25.8900   37.6509   21.6645 C.3         1 L04      -0.0625
     23 C23        27.4579   41.5458   27.8808 C.3         1 L04      -0.0495
     24 C24        27.4488   43.0673   28.2260 C.3         1 L04      -0.0323
     25 C25        27.3952   44.0203   26.9867 C.3         1 L04       0.0356
     26 C26        24.9444   43.8533   26.6555 C.2         1 L04       0.2046
     27 C27        29.2951   39.5551   19.2210 C.2         1 L04       0.2292
     28 C28        26.0377   45.5062   25.5112 C.3         1 L04       0.0703
     29 C29        24.0057   44.4354   25.8679 C.ar        1 L04       0.0535
     30 C30        30.3145   38.6568   17.1664 C.ar        1 L04       0.0663
     31 C31        30.8776   37.4186   16.7758 C.ar        1 L04      -0.0413
     32 C32        31.7097   37.3214   15.6448 C.ar        1 L04      -0.0755
     33 C33        31.9792   38.4638   14.8721 C.ar        1 L04      -0.0772
     34 C34        31.4146   39.6987   15.2292 C.ar        1 L04      -0.0755
     35 C35        30.5865   39.7940   16.3642 C.ar        1 L04      -0.0413
     36 C36        24.6283   45.4431   25.1383 C.ar        1 L04      -0.0003
     37 C37        22.6357   44.1623   25.6888 C.ar        1 L04      -0.0484
     38 C38        23.9164   46.2032   24.1931 C.ar        1 L04      -0.0524
     39 C39        22.5445   45.9431   24.0072 C.ar        1 L04      -0.0641
     40 C40        21.9061   44.9320   24.7605 C.ar        1 L04      -0.0630
     41 C41        40.0792   40.2399   20.5554 C.ar        1 L04       0.1322
     42 C42        39.1092   39.2570   20.2922 C.ar        1 L04      -0.0282
     43 C43        37.7550   39.5095   20.5775 C.ar        1 L04      -0.0571
     44 N1         26.1133   44.4681   26.5049 N.am        1 L04      -0.2613
     45 N18        28.6856   40.1199   21.4671 N.am        1 L04      -0.2649
     46 N29        29.5242   38.6275   18.2893 N.am        1 L04      -0.2320
     47 O1         24.7274   42.8454   27.3161 O.2         1 L04      -0.3882
     48 O4         30.2209   43.3510   25.1265 O.co2       1 L04      -0.5687
     49 O5         30.3805   43.3043   27.4222 O.co2       1 L04      -0.5687
     50 O17        29.3087   38.5968   22.9513 O.2         1 L04      -0.3966
     51 O28        29.7996   40.6684   19.1610 O.2         1 L04      -0.3823
     52 F1         41.3352   40.0034   20.2943 F           1 L04      -0.1835
     53 H1         28.6804   39.7976   27.6230 H           1 L04       0.0286
     54 H2         29.4738   41.0730   28.4997 H           1 L04       0.0286
     55 H3         30.6243   40.6993   26.4513 H           1 L04       0.0467
     56 H4         23.7061   39.3347   21.3151 H           1 L04       0.0232
     57 H5         24.1596   38.6870   19.7244 H           1 L04       0.0232
     58 H6         24.4041   40.4021   20.0957 H           1 L04       0.0232
     59 H7         38.0804   42.6396   21.7776 H           1 L04       0.0606
     60 H8         29.2962   41.7693   23.2728 H           1 L04       0.0541
     61 H9         31.6251   39.8083   23.5510 H           1 L04       0.0315
     62 H10        31.6271   41.3314   24.4086 H           1 L04       0.0315
     63 H11        31.5785   42.6538   22.4259 H           1 L04       0.0430
     64 H12        31.1524   41.2932   21.4140 H           1 L04       0.0430
     65 H13        32.9528   41.0037   19.9108 H           1 L04       0.0559
     66 H14        35.2673   40.7084   19.4282 H           1 L04       0.0604
     67 H15        36.2046   41.4026   23.4879 H           1 L04       0.0604
     68 H16        33.8914   41.7705   23.9553 H           1 L04       0.0559
     69 H17        40.3932   42.1916   21.2973 H           1 L04       0.0604
     70 H18        27.9880   40.9425   24.9675 H           1 L04       0.0313
     71 H19        28.9570   39.5143   25.2429 H           1 L04       0.0313
     72 H20        28.6356   38.2008   20.6388 H           1 L04       0.0805
     73 H21        26.7600   38.5325   19.1453 H           1 L04       0.0315
     74 H22        26.7441   40.2682   19.4558 H           1 L04       0.0315
     75 H23        26.0686   39.7946   21.8493 H           1 L04       0.0298
     76 H24        26.8384   37.4626   22.1674 H           1 L04       0.0232
     77 H25        25.7447   36.8933   20.8912 H           1 L04       0.0232
     78 H26        25.0968   37.5428   22.4082 H           1 L04       0.0232
     79 H27        27.0115   41.0220   28.7341 H           1 L04       0.0267
     80 H28        26.7939   41.3543   27.0338 H           1 L04       0.0267
     81 H29        28.3321   43.2891   28.8313 H           1 L04       0.0285
     82 H30        26.5922   43.2840   28.8697 H           1 L04       0.0285
     83 H31        27.8548   43.5341   26.1292 H           1 L04       0.0523
     84 H32        28.0116   44.8944   27.2236 H           1 L04       0.0523
     85 H33        26.6694   45.2872   24.6451 H           1 L04       0.0699
     86 H34        26.2926   46.4797   25.9329 H           1 L04       0.0699
     87 H35        30.6958   36.5739   17.3234 H           1 L04       0.0502
     88 H36        32.1180   36.4235   15.3818 H           1 L04       0.0577
     89 H37        32.5784   38.3934   14.0454 H           1 L04       0.0487
     90 H38        31.5976   40.5273   14.6597 H           1 L04       0.0577
     91 H39        30.1726   40.7022   16.5705 H           1 L04       0.0502
     92 H40        22.1752   43.4219   26.2226 H           1 L04       0.0651
     93 H41        24.3888   46.9312   23.6514 H           1 L04       0.0569
     94 H42        22.0092   46.4876   23.3280 H           1 L04       0.0635
     95 H43        20.9067   44.7562   24.6349 H           1 L04       0.0572
     96 H44        39.3854   38.3554   19.8982 H           1 L04       0.0604
     97 H45        37.0715   38.7712   20.3846 H           1 L04       0.0606
     98 H46        28.6009   41.0709   21.2836 H           1 L04       0.1883
     99 H47        29.0868   37.7727   18.4447 H           1 L04       0.2257
@<TRIPOS>BOND
     1     1    23   1
     2     1     2   1
     3     2    18   1
     4     2     3   1
     5     3    49  ar
     6     3    48  ar
     7    18     7   1
     8     7    16   1
     9     7     8   1
    10     8     9   1
    11     9    10   1
    12    10    15  ar
    13    10    11  ar
    14    11    12  ar
    15    12    13  ar
    16    13    14  ar
    17    13     5   1
    18     5    43  ar
    19     5     6  ar
    20     6    17  ar
    21    17    41  ar
    22    41    42  ar
    23    42    43  ar
    24    14    15  ar
    25    16    50   2
    26    16    45  am
    27    45    19   1
    28    19    27   1
    29    19    20   1
    30    20    21   1
    31    21     4   1
    32    21    22   1
    33    27    51   2
    34    27    46  am
    35    46    30   1
    36    30    35  ar
    37    30    31  ar
    38    31    32  ar
    39    32    33  ar
    40    33    34  ar
    41    34    35  ar
    42    23    24   1
    43    24    25   1
    44    25    44   1
    45    44    28   1
    46    44    26  am
    47    26    47   2
    48    26    29   1
    49    29    37  ar
    50    29    36  ar
    51    36    28   1
    52    36    38  ar
    53    38    39  ar
    54    39    40  ar
    55    40    37  ar
    56    41    52   1
    57     1    53   1
    58     1    54   1
    59     2    55   1
    60     4    56   1
    61     4    57   1
    62     4    58   1
    63     6    59   1
    64     7    60   1
    65     8    61   1
    66     8    62   1
    67     9    63   1
    68     9    64   1
    69    11    65   1
    70    12    66   1
    71    14    67   1
    72    15    68   1
    73    17    69   1
    74    18    70   1
    75    18    71   1
    76    19    72   1
    77    20    73   1
    78    20    74   1
    79    21    75   1
    80    22    76   1
    81    22    77   1
    82    22    78   1
    83    23    79   1
    84    23    80   1
    85    24    81   1
    86    24    82   1
    87    25    83   1
    88    25    84   1
    89    28    85   1
    90    28    86   1
    91    31    87   1
    92    32    88   1
    93    33    89   1
    94    34    90   1
    95    35    91   1
    96    37    92   1
    97    38    93   1
    98    39    94   1
    99    40    95   1
   100    42    96   1
   101    43    97   1
   102    45    98   1
   103    46    99   1
@<TRIPOS>SUBSTRUCTURE
     1  L04      1

