@<TRIPOS>MOLECULE
1hfs_ligand_087
    99   103
SMALL
GAST_HUCK
****
This file was generated by PARSER (from files_GN.cpp)

@<TRIPOS>ATOM
      1 C1         34.4437   41.4945   21.7224 C.3         1 L04      -0.0384
      2 C2         34.4360   40.0651   22.3957 C.3         1 L04       0.0141
      3 C3         33.2186   39.8795   23.2203 C.2         1 L04       0.0380
      4 C4         36.0027   32.4116   24.4907 C.3         1 L04      -0.0625
      5 C5         42.2224   40.2096   18.7818 C.ar        1 L04      -0.0257
      6 C6         42.3719   41.6173   18.8496 C.ar        1 L04      -0.0571
      7 C7         36.4349   38.3645   22.7409 C.3         1 L04       0.0523
      8 C8         37.8442   38.1762   23.4188 C.3         1 L04      -0.0232
      9 C9         38.8677   37.3644   22.5630 C.3         1 L04      -0.0166
     10 C10        39.7437   38.1444   21.6256 C.ar        1 L04      -0.0424
     11 C11        41.0891   37.7583   21.4140 C.ar        1 L04      -0.0596
     12 C12        41.9105   38.4282   20.4873 C.ar        1 L04      -0.0610
     13 C13        41.4195   39.5187   19.7312 C.ar        1 L04      -0.0267
     14 C14        40.0773   39.9113   19.9457 C.ar        1 L04      -0.0610
     15 C15        39.2613   39.2406   20.8669 C.ar        1 L04      -0.0596
     16 C16        35.5782   37.1838   22.8801 C.2         1 L04       0.1816
     17 C17        43.1190   42.3128   17.8841 C.ar        1 L04      -0.0282
     18 C18        35.7293   39.6805   23.2152 C.3         1 L04      -0.0186
     19 C19        34.0335   35.8585   24.2949 C.3         1 L04       0.1369
     20 C20        34.6281   34.5507   24.9144 C.3         1 L04      -0.0096
     21 C21        35.0691   33.4795   23.8586 C.3         1 L04      -0.0425
     22 C22        33.8540   32.7790   23.1813 C.3         1 L04      -0.0625
     23 C23        33.9415   41.5380   20.2497 C.3         1 L04      -0.0495
     24 C24        32.5298   40.9362   19.9976 C.3         1 L04      -0.0323
     25 C25        32.0274   41.1087   18.5307 C.3         1 L04       0.0356
     26 C26        29.8219   42.1608   18.8075 C.2         1 L04       0.2046
     27 C27        32.9995   36.4575   25.1321 C.2         1 L04       0.2292
     28 C28        31.3562   43.3631   17.6027 C.3         1 L04       0.0703
     29 C29        29.1735   43.2871   18.4166 C.ar        1 L04       0.0535
     30 C30        30.6929   37.2185   25.2192 C.ar        1 L04       0.0663
     31 C31        30.7626   38.4592   25.8995 C.ar        1 L04      -0.0413
     32 C32        29.6045   39.0507   26.4364 C.ar        1 L04      -0.0755
     33 C33        28.3626   38.4076   26.3031 C.ar        1 L04      -0.0772
     34 C34        28.2742   37.1885   25.6074 C.ar        1 L04      -0.0755
     35 C35        29.4328   36.6075   25.0539 C.ar        1 L04      -0.0413
     36 C36        30.0697   44.0537   17.6760 C.ar        1 L04      -0.0003
     37 C37        27.8500   43.7248   18.6255 C.ar        1 L04      -0.0484
     38 C38        29.6772   45.2838   17.1153 C.ar        1 L04      -0.0524
     39 C39        28.3555   45.7324   17.3174 C.ar        1 L04      -0.0641
     40 C40        27.4462   44.9573   18.0693 C.ar        1 L04      -0.0630
     41 C41        43.7312   41.6152   16.8293 C.ar        1 L04       0.1322
     42 C42        43.5998   40.2164   16.7502 C.ar        1 L04      -0.0282
     43 C43        42.8538   39.5191   17.7168 C.ar        1 L04      -0.0571
     44 N1         31.0758   42.1761   18.3597 N.am        1 L04      -0.2613
     45 N18        35.0622   36.8411   24.0577 N.am        1 L04      -0.2649
     46 N29        31.7701   36.6125   24.6444 N.am        1 L04      -0.2320
     47 O1         29.2965   41.2573   19.4454 O.2         1 L04      -0.3882
     48 O4         32.2058   39.0756   22.8083 O.co2       1 L04      -0.5687
     49 O5         33.0290   40.6157   24.3429 O.co2       1 L04      -0.5687
     50 O17        35.3000   36.5419   21.8693 O.2         1 L04      -0.3966
     51 O28        33.2687   36.7512   26.2925 O.2         1 L04      -0.3823
     52 F1         44.4163   42.2627   15.9276 F           1 L04      -0.1835
     53 H1         33.8517   42.2055   22.3073 H           1 L04       0.0286
     54 H2         35.4565   41.8994   21.7042 H           1 L04       0.0286
     55 H3         34.3646   39.3402   21.5821 H           1 L04       0.0467
     56 H4         36.2890   31.6690   23.7438 H           1 L04       0.0232
     57 H5         35.5020   31.9013   25.3157 H           1 L04       0.0232
     58 H6         36.9139   32.8801   24.8666 H           1 L04       0.0232
     59 H7         41.9383   42.1477   19.6088 H           1 L04       0.0606
     60 H8         36.6063   38.5055   21.6757 H           1 L04       0.0541
     61 H9         37.7114   37.6851   24.3856 H           1 L04       0.0315
     62 H10        38.2945   39.1495   23.6375 H           1 L04       0.0315
     63 H11        38.3359   36.6117   21.9759 H           1 L04       0.0430
     64 H12        39.5040   36.8144   23.2642 H           1 L04       0.0430
     65 H13        41.4815   36.9709   21.9310 H           1 L04       0.0559
     66 H14        42.8795   38.1214   20.3738 H           1 L04       0.0604
     67 H15        39.6741   40.6882   19.4078 H           1 L04       0.0604
     68 H16        38.3079   39.5836   20.9823 H           1 L04       0.0559
     69 H17        43.2080   43.3295   17.9492 H           1 L04       0.0604
     70 H18        35.5128   39.5996   24.2847 H           1 L04       0.0313
     71 H19        36.4586   40.4822   23.1261 H           1 L04       0.0313
     72 H20        33.5604   35.5911   23.3476 H           1 L04       0.0805
     73 H21        33.8991   34.0811   25.5851 H           1 L04       0.0315
     74 H22        35.4855   34.8265   25.5370 H           1 L04       0.0315
     75 H23        35.6452   33.9841   23.0754 H           1 L04       0.0298
     76 H24        33.2148   33.4952   22.6662 H           1 L04       0.0232
     77 H25        33.2480   32.2566   23.9231 H           1 L04       0.0232
     78 H26        34.1949   32.0510   22.4425 H           1 L04       0.0232
     79 H27        34.6664   41.0125   19.6228 H           1 L04       0.0267
     80 H28        33.9270   42.5805   19.9294 H           1 L04       0.0267
     81 H29        31.8273   41.3879   20.7018 H           1 L04       0.0285
     82 H30        32.5592   39.8672   20.2156 H           1 L04       0.0285
     83 H31        31.5515   40.1796   18.2027 H           1 L04       0.0523
     84 H32        32.8829   41.2564   17.8657 H           1 L04       0.0523
     85 H33        31.6088   43.1269   16.5663 H           1 L04       0.0699
     86 H34        32.1484   43.9558   18.0655 H           1 L04       0.0699
     87 H35        31.6506   38.9535   25.9857 H           1 L04       0.0502
     88 H36        29.6714   39.9466   26.9258 H           1 L04       0.0577
     89 H37        27.5229   38.8340   26.6986 H           1 L04       0.0487
     90 H38        27.3718   36.7220   25.5127 H           1 L04       0.0577
     91 H39        29.3521   35.7231   24.5457 H           1 L04       0.0502
     92 H40        27.1913   43.1608   19.1670 H           1 L04       0.0651
     93 H41        30.3379   45.8378   16.5661 H           1 L04       0.0569
     94 H42        28.0542   46.6223   16.9139 H           1 L04       0.0635
     95 H43        26.4890   45.2878   18.2095 H           1 L04       0.0572
     96 H44        44.0378   39.7051   15.9794 H           1 L04       0.0604
     97 H45        42.7520   38.5050   17.6230 H           1 L04       0.0606
     98 H46        35.3758   37.3414   24.8290 H           1 L04       0.1883
     99 H47        31.6045   36.2070   23.7776 H           1 L04       0.2257
@<TRIPOS>BOND
     1     1    23   1
     2     1     2   1
     3     2    18   1
     4     2     3   1
     5     3    49  ar
     6     3    48  ar
     7    18     7   1
     8     7    16   1
     9     7     8   1
    10     8     9   1
    11     9    10   1
    12    10    15  ar
    13    10    11  ar
    14    11    12  ar
    15    12    13  ar
    16    13    14  ar
    17    13     5   1
    18     5    43  ar
    19     5     6  ar
    20     6    17  ar
    21    17    41  ar
    22    41    42  ar
    23    42    43  ar
    24    14    15  ar
    25    16    50   2
    26    16    45  am
    27    45    19   1
    28    19    27   1
    29    19    20   1
    30    20    21   1
    31    21     4   1
    32    21    22   1
    33    27    51   2
    34    27    46  am
    35    46    30   1
    36    30    35  ar
    37    30    31  ar
    38    31    32  ar
    39    32    33  ar
    40    33    34  ar
    41    34    35  ar
    42    23    24   1
    43    24    25   1
    44    25    44   1
    45    44    28   1
    46    44    26  am
    47    26    47   2
    48    26    29   1
    49    29    37  ar
    50    29    36  ar
    51    36    28   1
    52    36    38  ar
    53    38    39  ar
    54    39    40  ar
    55    40    37  ar
    56    41    52   1
    57     1    53   1
    58     1    54   1
    59     2    55   1
    60     4    56   1
    61     4    57   1
    62     4    58   1
    63     6    59   1
    64     7    60   1
    65     8    61   1
    66     8    62   1
    67     9    63   1
    68     9    64   1
    69    11    65   1
    70    12    66   1
    71    14    67   1
    72    15    68   1
    73    17    69   1
    74    18    70   1
    75    18    71   1
    76    19    72   1
    77    20    73   1
    78    20    74   1
    79    21    75   1
    80    22    76   1
    81    22    77   1
    82    22    78   1
    83    23    79   1
    84    23    80   1
    85    24    81   1
    86    24    82   1
    87    25    83   1
    88    25    84   1
    89    28    85   1
    90    28    86   1
    91    31    87   1
    92    32    88   1
    93    33    89   1
    94    34    90   1
    95    35    91   1
    96    37    92   1
    97    38    93   1
    98    39    94   1
    99    40    95   1
   100    42    96   1
   101    43    97   1
   102    45    98   1
   103    46    99   1
@<TRIPOS>SUBSTRUCTURE
     1  L04      1

