@<TRIPOS>MOLECULE
1hfs_ligand_009
    99   103
SMALL
GAST_HUCK
****
This file was generated by PARSER (from files_GN.cpp)

@<TRIPOS>ATOM
      1 C1         33.9528   38.5169   23.8029 C.3         1 L04      -0.0384
      2 C2         32.3994   38.7346   23.7720 C.3         1 L04       0.0141
      3 C3         31.7959   38.4862   25.1086 C.2         1 L04       0.0380
      4 C4         25.1159   36.5994   21.0283 C.3         1 L04      -0.0625
      5 C5         28.2727   43.8452   17.7964 C.ar        1 L04      -0.0257
      6 C6         28.5973   44.4025   16.5304 C.ar        1 L04      -0.0571
      7 C7         30.3926   38.5207   22.0264 C.3         1 L04       0.0523
      8 C8         30.1921   38.0153   20.5481 C.3         1 L04      -0.0232
      9 C9         30.8458   38.9332   19.4686 C.3         1 L04      -0.0166
     10 C10        30.1871   40.2355   19.1437 C.ar        1 L04      -0.0424
     11 C11        30.9305   41.2579   18.5034 C.ar        1 L04      -0.0596
     12 C12        30.3133   42.4513   18.0821 C.ar        1 L04      -0.0610
     13 C13        28.9260   42.6680   18.2785 C.ar        1 L04      -0.0267
     14 C14        28.1914   41.6483   18.9330 C.ar        1 L04      -0.0610
     15 C15        28.8052   40.4543   19.3454 C.ar        1 L04      -0.0596
     16 C16        29.1625   38.3935   22.8090 C.2         1 L04       0.1816
     17 C17        27.9136   45.5255   16.0366 C.ar        1 L04      -0.0282
     18 C18        31.6729   37.8841   22.6775 C.3         1 L04      -0.0186
     19 C19        26.9058   39.4061   23.2185 C.3         1 L04       0.1369
     20 C20        25.9775   38.2185   22.7963 C.3         1 L04      -0.0096
     21 C21        25.7677   37.9892   21.2642 C.3         1 L04      -0.0425
     22 C22        24.9256   39.1058   20.5825 C.3         1 L04      -0.0625
     23 C23        34.7509   39.0133   22.5451 C.3         1 L04      -0.0495
     24 C24        35.2394   37.9520   21.5053 C.3         1 L04      -0.0323
     25 C25        36.4954   37.1269   21.9027 C.3         1 L04       0.0356
     26 C26        35.4739   35.2427   23.1195 C.2         1 L04       0.2046
     27 C27        26.9753   39.6832   24.6539 C.2         1 L04       0.2292
     28 C28        37.0100   36.4829   24.2793 C.3         1 L04       0.0703
     29 C29        35.4454   34.7629   24.3897 C.ar        1 L04       0.0535
     30 C30        26.1147   39.1792   26.8926 C.ar        1 L04       0.0663
     31 C31        26.1182   40.4578   27.5022 C.ar        1 L04      -0.0413
     32 C32        25.8502   40.6038   28.8759 C.ar        1 L04      -0.0755
     33 C33        25.5626   39.4714   29.6605 C.ar        1 L04      -0.0772
     34 C34        25.5247   38.2006   29.0677 C.ar        1 L04      -0.0755
     35 C35        25.7883   38.0561   27.6894 C.ar        1 L04      -0.0413
     36 C36        36.3693   35.4892   25.1363 C.ar        1 L04      -0.0003
     37 C37        34.6494   33.7692   24.9937 C.ar        1 L04      -0.0484
     38 C38        36.5362   35.2510   26.5121 C.ar        1 L04      -0.0524
     39 C39        35.7358   34.2670   27.1323 C.ar        1 L04      -0.0641
     40 C40        34.7974   33.5299   26.3754 C.ar        1 L04      -0.0630
     41 C41        26.8867   46.1190   16.7928 C.ar        1 L04       0.1322
     42 C42        26.5645   45.5966   18.0582 C.ar        1 L04      -0.0282
     43 C43        27.2456   44.4707   18.5490 C.ar        1 L04      -0.0571
     44 N1         36.3127   36.2706   23.0444 N.am        1 L04      -0.2613
     45 N18        28.2158   39.3095   22.6295 N.am        1 L04      -0.2649
     46 N29        26.3185   38.9564   25.5581 N.am        1 L04      -0.2320
     47 O1         34.7423   34.8360   22.2269 O.2         1 L04      -0.3882
     48 O4         31.9844   37.3167   25.7650 O.co2       1 L04      -0.5687
     49 O5         31.0339   39.4301   25.7065 O.co2       1 L04      -0.5687
     50 O17        28.9461   37.3936   23.4878 O.2         1 L04      -0.3966
     51 O28        27.6540   40.6506   25.0014 O.2         1 L04      -0.3823
     52 F1         26.2377   47.1470   16.3297 F           1 L04      -0.1835
     53 H1         34.3460   39.0597   24.6701 H           1 L04       0.0286
     54 H2         34.1509   37.4628   23.9798 H           1 L04       0.0286
     55 H3         32.2490   39.7946   23.5455 H           1 L04       0.0467
     56 H4         24.9587   36.4186   19.9621 H           1 L04       0.0232
     57 H5         24.1575   36.5391   21.5446 H           1 L04       0.0232
     58 H6         25.7604   35.8076   21.4135 H           1 L04       0.0232
     59 H7         29.3234   43.9772   15.9483 H           1 L04       0.0606
     60 H8         30.5974   39.5952   21.9666 H           1 L04       0.0541
     61 H9         29.1389   37.8962   20.2941 H           1 L04       0.0315
     62 H10        30.6288   37.0150   20.4444 H           1 L04       0.0315
     63 H11        30.9050   38.3685   18.5346 H           1 L04       0.0430
     64 H12        31.8755   39.1240   19.7814 H           1 L04       0.0430
     65 H13        31.9320   41.1308   18.3222 H           1 L04       0.0559
     66 H14        30.8901   43.1626   17.6252 H           1 L04       0.0604
     67 H15        27.1820   41.7465   19.0783 H           1 L04       0.0604
     68 H16        28.2205   39.7363   19.7707 H           1 L04       0.0559
     69 H17        28.1600   45.9061   15.1189 H           1 L04       0.0604
     70 H18        31.4513   36.8825   23.0514 H           1 L04       0.0313
     71 H19        32.3762   37.7428   21.8648 H           1 L04       0.0313
     72 H20        26.4606   40.3027   22.7790 H           1 L04       0.0805
     73 H21        24.9899   38.3711   23.2452 H           1 L04       0.0315
     74 H22        26.3973   37.3076   23.2290 H           1 L04       0.0315
     75 H23        26.7423   37.9656   20.7742 H           1 L04       0.0298
     76 H24        25.4613   40.0554   20.6005 H           1 L04       0.0232
     77 H25        23.9670   39.2337   21.0882 H           1 L04       0.0232
     78 H26        24.7332   38.8525   19.5381 H           1 L04       0.0232
     79 H27        35.6330   39.5641   22.8825 H           1 L04       0.0267
     80 H28        34.1321   39.7386   22.0103 H           1 L04       0.0267
     81 H29        35.4925   38.4887   20.5862 H           1 L04       0.0285
     82 H30        34.4419   37.2617   21.2413 H           1 L04       0.0285
     83 H31        37.3169   37.8284   22.0746 H           1 L04       0.0523
     84 H32        36.7865   36.5046   21.0535 H           1 L04       0.0523
     85 H33        36.8395   37.4905   24.6600 H           1 L04       0.0699
     86 H34        38.0790   36.2892   24.1742 H           1 L04       0.0699
     87 H35        26.2776   41.3016   26.9505 H           1 L04       0.0502
     88 H36        25.8545   41.5319   29.2972 H           1 L04       0.0577
     89 H37        25.3674   39.5804   30.6594 H           1 L04       0.0487
     90 H38        25.3015   37.3772   29.6328 H           1 L04       0.0577
     91 H39        25.7403   37.1248   27.2704 H           1 L04       0.0502
     92 H40        33.9652   33.2436   24.4466 H           1 L04       0.0651
     93 H41        37.2087   35.7954   27.0565 H           1 L04       0.0569
     94 H42        35.8289   34.0950   28.1354 H           1 L04       0.0635
     95 H43        34.2156   32.8246   26.8340 H           1 L04       0.0572
     96 H44        25.8338   46.0355   18.6254 H           1 L04       0.0604
     97 H45        26.9905   44.1138   19.4747 H           1 L04       0.0606
     98 H46        28.4387   40.0270   22.0132 H           1 L04       0.1883
     99 H47        25.9189   38.1352   25.2261 H           1 L04       0.2257
@<TRIPOS>BOND
     1     1    23   1
     2     1     2   1
     3     2    18   1
     4     2     3   1
     5     3    49  ar
     6     3    48  ar
     7    18     7   1
     8     7    16   1
     9     7     8   1
    10     8     9   1
    11     9    10   1
    12    10    15  ar
    13    10    11  ar
    14    11    12  ar
    15    12    13  ar
    16    13    14  ar
    17    13     5   1
    18     5    43  ar
    19     5     6  ar
    20     6    17  ar
    21    17    41  ar
    22    41    42  ar
    23    42    43  ar
    24    14    15  ar
    25    16    50   2
    26    16    45  am
    27    45    19   1
    28    19    27   1
    29    19    20   1
    30    20    21   1
    31    21     4   1
    32    21    22   1
    33    27    51   2
    34    27    46  am
    35    46    30   1
    36    30    35  ar
    37    30    31  ar
    38    31    32  ar
    39    32    33  ar
    40    33    34  ar
    41    34    35  ar
    42    23    24   1
    43    24    25   1
    44    25    44   1
    45    44    28   1
    46    44    26  am
    47    26    47   2
    48    26    29   1
    49    29    37  ar
    50    29    36  ar
    51    36    28   1
    52    36    38  ar
    53    38    39  ar
    54    39    40  ar
    55    40    37  ar
    56    41    52   1
    57     1    53   1
    58     1    54   1
    59     2    55   1
    60     4    56   1
    61     4    57   1
    62     4    58   1
    63     6    59   1
    64     7    60   1
    65     8    61   1
    66     8    62   1
    67     9    63   1
    68     9    64   1
    69    11    65   1
    70    12    66   1
    71    14    67   1
    72    15    68   1
    73    17    69   1
    74    18    70   1
    75    18    71   1
    76    19    72   1
    77    20    73   1
    78    20    74   1
    79    21    75   1
    80    22    76   1
    81    22    77   1
    82    22    78   1
    83    23    79   1
    84    23    80   1
    85    24    81   1
    86    24    82   1
    87    25    83   1
    88    25    84   1
    89    28    85   1
    90    28    86   1
    91    31    87   1
    92    32    88   1
    93    33    89   1
    94    34    90   1
    95    35    91   1
    96    37    92   1
    97    38    93   1
    98    39    94   1
    99    40    95   1
   100    42    96   1
   101    43    97   1
   102    45    98   1
   103    46    99   1
@<TRIPOS>SUBSTRUCTURE
     1  L04      1

