@<TRIPOS>MOLECULE
1hfs_ligand_066
    99   103
SMALL
GAST_HUCK
****
This file was generated by PARSER (from files_GN.cpp)

@<TRIPOS>ATOM
      1 C1         32.3000   37.2268   22.9888 C.3         1 L04      -0.0384
      2 C2         32.4258   36.0208   23.9778 C.3         1 L04       0.0141
      3 C3         32.0247   36.4170   25.3517 C.2         1 L04       0.0380
      4 C4         35.9077   41.3116   22.4427 C.3         1 L04      -0.0625
      5 C5         38.7070   30.9039   29.7896 C.ar        1 L04      -0.0257
      6 C6         39.9280   30.2998   29.4220 C.ar        1 L04      -0.0571
      7 C7         35.1299   35.8538   24.3957 C.3         1 L04       0.0523
      8 C8         36.0488   34.8084   25.1295 C.3         1 L04      -0.0232
      9 C9         35.5176   34.3802   26.5318 C.3         1 L04      -0.0166
     10 C10        36.4220   33.4479   27.2671 C.ar        1 L04      -0.0424
     11 C11        36.1395   32.0650   27.3467 C.ar        1 L04      -0.0596
     12 C12        36.9180   31.2172   28.1533 C.ar        1 L04      -0.0610
     13 C13        38.0055   31.7337   28.8890 C.ar        1 L04      -0.0267
     14 C14        38.3271   33.1053   28.7723 C.ar        1 L04      -0.0610
     15 C15        37.5415   33.9503   27.9673 C.ar        1 L04      -0.0596
     16 C16        35.8923   36.5385   23.3380 C.2         1 L04       0.1816
     17 C17        40.5985   29.4461   30.3225 C.ar        1 L04      -0.0282
     18 C18        33.7713   35.2192   23.8845 C.3         1 L04      -0.0186
     19 C19        37.4478   38.3874   22.7399 C.3         1 L04       0.1369
     20 C20        37.8294   39.8189   23.2862 C.3         1 L04      -0.0096
     21 C21        37.4301   41.0159   22.3626 C.3         1 L04      -0.0425
     22 C22        38.2499   42.2965   22.6927 C.3         1 L04      -0.0625
     23 C23        30.8095   37.6217   22.7129 C.3         1 L04      -0.0495
     24 C24        30.6072   38.5341   21.4773 C.3         1 L04      -0.0323
     25 C25        30.8056   40.0536   21.7533 C.3         1 L04       0.0356
     26 C26        32.4242   40.7690   20.0688 C.2         1 L04       0.2046
     27 C27        38.6410   37.5726   22.5038 C.2         1 L04       0.2292
     28 C28        30.2793   41.4967   19.7341 C.3         1 L04       0.0703
     29 C29        32.4623   41.4828   18.9259 C.ar        1 L04       0.0535
     30 C30        40.6299   36.6242   23.4442 C.ar        1 L04       0.0663
     31 C31        41.8208   37.2026   23.9346 C.ar        1 L04      -0.0413
     32 C32        43.0255   36.4803   23.8995 C.ar        1 L04      -0.0755
     33 C33        43.0443   35.1574   23.4104 C.ar        1 L04      -0.0772
     34 C34        41.8484   34.5613   22.9587 C.ar        1 L04      -0.0755
     35 C35        40.6522   35.2936   22.9690 C.ar        1 L04      -0.0413
     36 C36        31.1693   41.9318   18.6575 C.ar        1 L04      -0.0003
     37 C37        33.5315   41.7930   18.0612 C.ar        1 L04      -0.0484
     38 C38        30.8953   42.6796   17.4987 C.ar        1 L04      -0.0524
     39 C39        31.9536   42.9848   16.6175 C.ar        1 L04      -0.0641
     40 C40        33.2672   42.5526   16.9025 C.ar        1 L04      -0.0630
     41 C41        40.0527   29.1967   31.5972 C.ar        1 L04       0.1322
     42 C42        38.8440   29.8096   31.9739 C.ar        1 L04      -0.0282
     43 C43        38.1732   30.6576   31.0731 C.ar        1 L04      -0.0571
     44 N1         31.1906   40.7585   20.5666 N.am        1 L04      -0.2613
     45 N18        36.5366   37.6804   23.6156 N.am        1 L04      -0.2649
     46 N29        39.4788   37.3452   23.5042 N.am        1 L04      -0.2320
     47 O1         33.3920   40.1878   20.5482 O.2         1 L04      -0.3882
     48 O4         32.8650   37.1258   26.1591 O.co2       1 L04      -0.5687
     49 O5         30.7433   36.3054   25.7463 O.co2       1 L04      -0.5687
     50 O17        36.0752   35.9582   22.2707 O.2         1 L04      -0.3966
     51 O28        38.9029   37.1923   21.3670 O.2         1 L04      -0.3823
     52 F1         40.6728   28.4081   32.4289 F           1 L04      -0.1835
     53 H1         32.8397   38.0964   23.3821 H           1 L04       0.0286
     54 H2         32.7619   36.9529   22.0336 H           1 L04       0.0286
     55 H3         31.6730   35.2835   23.6540 H           1 L04       0.0467
     56 H4         35.6232   42.0302   21.6719 H           1 L04       0.0232
     57 H5         35.6486   41.7237   23.4193 H           1 L04       0.0232
     58 H6         35.3282   40.3996   22.2945 H           1 L04       0.0232
     59 H7         40.3322   30.4625   28.4973 H           1 L04       0.0606
     60 H8         34.8807   36.6004   25.1527 H           1 L04       0.0541
     61 H9         37.0443   35.2508   25.2815 H           1 L04       0.0315
     62 H10        36.1755   33.9070   24.5006 H           1 L04       0.0315
     63 H11        34.5363   33.9075   26.4303 H           1 L04       0.0430
     64 H12        35.3609   35.2735   27.1458 H           1 L04       0.0430
     65 H13        35.3417   31.6666   26.8407 H           1 L04       0.0559
     66 H14        36.6740   30.2244   28.2175 H           1 L04       0.0604
     67 H15        39.1086   33.5026   29.2986 H           1 L04       0.0604
     68 H16        37.7704   34.9482   27.9244 H           1 L04       0.0559
     69 H17        41.4800   29.0092   30.0474 H           1 L04       0.0604
     70 H18        33.8847   34.8952   22.8379 H           1 L04       0.0313
     71 H19        33.5844   34.2841   24.4159 H           1 L04       0.0313
     72 H20        36.9229   38.5118   21.7876 H           1 L04       0.0805
     73 H21        38.9120   39.8879   23.4396 H           1 L04       0.0315
     74 H22        37.3901   39.9736   24.2771 H           1 L04       0.0315
     75 H23        37.6728   40.7451   21.3300 H           1 L04       0.0298
     76 H24        39.3188   42.1089   22.5647 H           1 L04       0.0232
     77 H25        38.0752   42.6099   23.7239 H           1 L04       0.0232
     78 H26        37.9694   43.1106   22.0225 H           1 L04       0.0232
     79 H27        30.3719   38.1032   23.5916 H           1 L04       0.0267
     80 H28        30.2387   36.7064   22.5304 H           1 L04       0.0267
     81 H29        29.5860   38.3899   21.1093 H           1 L04       0.0285
     82 H30        31.2776   38.1989   20.6797 H           1 L04       0.0285
     83 H31        31.5614   40.2010   22.5310 H           1 L04       0.0523
     84 H32        29.8694   40.4598   22.1478 H           1 L04       0.0523
     85 H33        29.8616   42.3556   20.2635 H           1 L04       0.0699
     86 H34        29.4805   40.8616   19.3448 H           1 L04       0.0699
     87 H35        41.8212   38.1587   24.3013 H           1 L04       0.0502
     88 H36        43.8925   36.9084   24.2376 H           1 L04       0.0577
     89 H37        43.9161   34.6265   23.3987 H           1 L04       0.0487
     90 H38        41.8567   33.5918   22.6290 H           1 L04       0.0577
     91 H39        39.7867   34.8446   22.6533 H           1 L04       0.0502
     92 H40        34.4790   41.4718   18.2682 H           1 L04       0.0651
     93 H41        29.9431   42.9943   17.2945 H           1 L04       0.0569
     94 H42        31.7706   43.5236   15.7663 H           1 L04       0.0635
     95 H43        34.0325   42.7853   16.2644 H           1 L04       0.0572
     96 H44        38.4434   29.6338   32.8990 H           1 L04       0.0604
     97 H45        37.2930   31.0947   31.3630 H           1 L04       0.0606
     98 H46        36.3867   38.0590   24.5019 H           1 L04       0.1883
     99 H47        39.3124   37.8198   24.3327 H           1 L04       0.2257
@<TRIPOS>BOND
     1     1    23   1
     2     1     2   1
     3     2    18   1
     4     2     3   1
     5     3    49  ar
     6     3    48  ar
     7    18     7   1
     8     7    16   1
     9     7     8   1
    10     8     9   1
    11     9    10   1
    12    10    15  ar
    13    10    11  ar
    14    11    12  ar
    15    12    13  ar
    16    13    14  ar
    17    13     5   1
    18     5    43  ar
    19     5     6  ar
    20     6    17  ar
    21    17    41  ar
    22    41    42  ar
    23    42    43  ar
    24    14    15  ar
    25    16    50   2
    26    16    45  am
    27    45    19   1
    28    19    27   1
    29    19    20   1
    30    20    21   1
    31    21     4   1
    32    21    22   1
    33    27    51   2
    34    27    46  am
    35    46    30   1
    36    30    35  ar
    37    30    31  ar
    38    31    32  ar
    39    32    33  ar
    40    33    34  ar
    41    34    35  ar
    42    23    24   1
    43    24    25   1
    44    25    44   1
    45    44    28   1
    46    44    26  am
    47    26    47   2
    48    26    29   1
    49    29    37  ar
    50    29    36  ar
    51    36    28   1
    52    36    38  ar
    53    38    39  ar
    54    39    40  ar
    55    40    37  ar
    56    41    52   1
    57     1    53   1
    58     1    54   1
    59     2    55   1
    60     4    56   1
    61     4    57   1
    62     4    58   1
    63     6    59   1
    64     7    60   1
    65     8    61   1
    66     8    62   1
    67     9    63   1
    68     9    64   1
    69    11    65   1
    70    12    66   1
    71    14    67   1
    72    15    68   1
    73    17    69   1
    74    18    70   1
    75    18    71   1
    76    19    72   1
    77    20    73   1
    78    20    74   1
    79    21    75   1
    80    22    76   1
    81    22    77   1
    82    22    78   1
    83    23    79   1
    84    23    80   1
    85    24    81   1
    86    24    82   1
    87    25    83   1
    88    25    84   1
    89    28    85   1
    90    28    86   1
    91    31    87   1
    92    32    88   1
    93    33    89   1
    94    34    90   1
    95    35    91   1
    96    37    92   1
    97    38    93   1
    98    39    94   1
    99    40    95   1
   100    42    96   1
   101    43    97   1
   102    45    98   1
   103    46    99   1
@<TRIPOS>SUBSTRUCTURE
     1  L04      1

