@<TRIPOS>MOLECULE
1hfs_ligand_011
    99   103
SMALL
GAST_HUCK
****
This file was generated by PARSER (from files_GN.cpp)

@<TRIPOS>ATOM
      1 C1         30.8216   36.9021   23.8961 C.3         1 L04      -0.0384
      2 C2         31.4947   38.3233   23.8991 C.3         1 L04       0.0141
      3 C3         32.4410   38.5162   25.0257 C.2         1 L04       0.0380
      4 C4         25.2172   37.6127   20.8572 C.3         1 L04      -0.0625
      5 C5         38.1899   40.1634   21.2261 C.ar        1 L04      -0.0257
      6 C6         38.8323   39.5343   20.1342 C.ar        1 L04      -0.0571
      7 C7         30.3137   40.3084   22.5046 C.3         1 L04       0.0523
      8 C8         31.6222   41.1090   22.1235 C.3         1 L04      -0.0232
      9 C9         32.4683   40.6579   20.8837 C.3         1 L04      -0.0166
     10 C10        33.9339   40.5329   21.1131 C.ar        1 L04      -0.0424
     11 C11        34.5556   39.2643   21.0618 C.ar        1 L04      -0.0596
     12 C12        35.9545   39.1432   21.1224 C.ar        1 L04      -0.0610
     13 C13        36.7722   40.2919   21.2591 C.ar        1 L04      -0.0267
     14 C14        36.1397   41.5500   21.3964 C.ar        1 L04      -0.0610
     15 C15        34.7407   41.6721   21.3157 C.ar        1 L04      -0.0596
     16 C16        29.7199   39.5120   21.4274 C.2         1 L04       0.1816
     17 C17        40.2299   39.3851   20.1020 C.ar        1 L04      -0.0282
     18 C18        30.4373   39.4956   23.8423 C.3         1 L04      -0.0186
     19 C19        27.9574   39.2488   19.7194 C.3         1 L04       0.1369
     20 C20        26.4446   39.6257   19.7339 C.3         1 L04      -0.0096
     21 C21        25.5820   39.1231   20.9433 C.3         1 L04      -0.0425
     22 C22        26.1859   39.4520   22.3333 C.3         1 L04      -0.0625
     23 C23        31.6957   35.6347   24.1617 C.3         1 L04      -0.0495
     24 C24        33.1419   35.5985   23.5662 C.3         1 L04      -0.0323
     25 C25        34.2453   35.3597   24.6381 C.3         1 L04       0.0356
     26 C26        36.0343   36.9969   24.2656 C.2         1 L04       0.2046
     27 C27        28.6353   39.5849   18.4635 C.2         1 L04       0.2292
     28 C28        36.5631   34.8320   23.7310 C.3         1 L04       0.0703
     29 C29        37.3544   37.0095   23.9311 C.ar        1 L04       0.0535
     30 C30        30.1082   38.6610   16.7102 C.ar        1 L04       0.0663
     31 C31        30.3402   39.7675   15.8515 C.ar        1 L04      -0.0413
     32 C32        31.2898   39.6885   14.8119 C.ar        1 L04      -0.0755
     33 C33        32.0202   38.5056   14.6134 C.ar        1 L04      -0.0772
     34 C34        31.8049   37.4016   15.4519 C.ar        1 L04      -0.0755
     35 C35        30.8520   37.4789   16.4842 C.ar        1 L04      -0.0413
     36 C36        37.7169   35.7157   23.5642 C.ar        1 L04      -0.0003
     37 C37        38.2997   38.0538   23.9464 C.ar        1 L04      -0.0484
     38 C38        39.0298   35.4301   23.1498 C.ar        1 L04      -0.0524
     39 C39        39.9798   36.4745   23.1423 C.ar        1 L04      -0.0641
     40 C40        39.6231   37.7781   23.5512 C.ar        1 L04      -0.0630
     41 C41        41.0123   39.8677   21.1675 C.ar        1 L04       0.1322
     42 C42        40.3899   40.4858   22.2672 C.ar        1 L04      -0.0282
     43 C43        38.9922   40.6578   22.2854 C.ar        1 L04      -0.0571
     44 N1         35.5623   35.7538   24.2037 N.am        1 L04      -0.2613
     45 N18        28.6372   39.9310   20.7815 N.am        1 L04      -0.2649
     46 N29        29.2350   38.6215   17.7698 N.am        1 L04      -0.2320
     47 O1         35.4170   37.9925   24.6262 O.2         1 L04      -0.3882
     48 O4         32.4113   37.7486   26.1324 O.co2       1 L04      -0.5687
     49 O5         33.3115   39.5491   25.0198 O.co2       1 L04      -0.5687
     50 O17        30.1928   38.4172   21.1504 O.2         1 L04      -0.3966
     51 O28        28.7351   40.7680   18.1619 O.2         1 L04      -0.3823
     52 F1         42.3080   39.7260   21.1402 F           1 L04      -0.1835
     53 H1         30.0312   36.9065   24.6538 H           1 L04       0.0286
     54 H2         30.3219   36.7616   22.9335 H           1 L04       0.0286
     55 H3         32.0977   38.3826   22.9906 H           1 L04       0.0467
     56 H4         24.4927   37.3574   21.6335 H           1 L04       0.0232
     57 H5         26.0999   36.9908   21.0006 H           1 L04       0.0232
     58 H6         24.7762   37.3776   19.8888 H           1 L04       0.0232
     59 H7         38.2848   39.1831   19.3454 H           1 L04       0.0606
     60 H8         29.5780   41.0834   22.7536 H           1 L04       0.0541
     61 H9         32.2671   41.1586   23.0036 H           1 L04       0.0315
     62 H10        31.3311   42.1530   21.9414 H           1 L04       0.0315
     63 H11        32.3138   41.3821   20.0731 H           1 L04       0.0430
     64 H12        32.0975   39.7110   20.5032 H           1 L04       0.0430
     65 H13        34.0000   38.4103   20.9324 H           1 L04       0.0559
     66 H14        36.3702   38.2093   21.0472 H           1 L04       0.0604
     67 H15        36.7037   42.3933   21.5082 H           1 L04       0.0604
     68 H16        34.3185   42.5977   21.3690 H           1 L04       0.0559
     69 H17        40.6730   38.9339   19.2980 H           1 L04       0.0604
     70 H18        30.6510   40.2213   24.6338 H           1 L04       0.0313
     71 H19        29.4470   39.1026   24.0890 H           1 L04       0.0313
     72 H20        28.0122   38.1716   19.8823 H           1 L04       0.0805
     73 H21        25.9877   39.2255   18.8241 H           1 L04       0.0315
     74 H22        26.3523   40.7137   19.6722 H           1 L04       0.0315
     75 H23        24.6327   39.6669   20.8763 H           1 L04       0.0298
     76 H24        26.5393   40.4812   22.3669 H           1 L04       0.0232
     77 H25        27.0256   38.7936   22.5582 H           1 L04       0.0232
     78 H26        25.4291   39.3232   23.1101 H           1 L04       0.0232
     79 H27        31.1434   34.7722   23.7754 H           1 L04       0.0267
     80 H28        31.7338   35.4893   25.2402 H           1 L04       0.0267
     81 H29        33.3681   36.5195   23.0348 H           1 L04       0.0285
     82 H30        33.2051   34.8012   22.8190 H           1 L04       0.0285
     83 H31        34.2331   34.3018   24.9086 H           1 L04       0.0523
     84 H32        34.0122   35.9276   25.5427 H           1 L04       0.0523
     85 H33        36.2663   34.3845   22.7806 H           1 L04       0.0699
     86 H34        36.7743   34.0521   24.4679 H           1 L04       0.0699
     87 H35        29.8226   40.6404   15.9601 H           1 L04       0.0502
     88 H36        31.4465   40.4948   14.2008 H           1 L04       0.0577
     89 H37        32.7063   38.4504   13.8559 H           1 L04       0.0487
     90 H38        32.3409   36.5425   15.3125 H           1 L04       0.0577
     91 H39        30.7161   36.6645   17.0850 H           1 L04       0.0502
     92 H40        38.0330   38.9916   24.2528 H           1 L04       0.0651
     93 H41        39.3002   34.4858   22.8732 H           1 L04       0.0569
     94 H42        40.9457   36.2827   22.8610 H           1 L04       0.0635
     95 H43        40.3246   38.5266   23.5642 H           1 L04       0.0572
     96 H44        40.9476   40.8097   23.0513 H           1 L04       0.0604
     97 H45        38.5655   41.1167   23.0948 H           1 L04       0.0606
     98 H46        28.2933   40.8062   21.0304 H           1 L04       0.1883
     99 H47        29.0738   37.7259   18.1025 H           1 L04       0.2257
@<TRIPOS>BOND
     1     1    23   1
     2     1     2   1
     3     2    18   1
     4     2     3   1
     5     3    49  ar
     6     3    48  ar
     7    18     7   1
     8     7    16   1
     9     7     8   1
    10     8     9   1
    11     9    10   1
    12    10    15  ar
    13    10    11  ar
    14    11    12  ar
    15    12    13  ar
    16    13    14  ar
    17    13     5   1
    18     5    43  ar
    19     5     6  ar
    20     6    17  ar
    21    17    41  ar
    22    41    42  ar
    23    42    43  ar
    24    14    15  ar
    25    16    50   2
    26    16    45  am
    27    45    19   1
    28    19    27   1
    29    19    20   1
    30    20    21   1
    31    21     4   1
    32    21    22   1
    33    27    51   2
    34    27    46  am
    35    46    30   1
    36    30    35  ar
    37    30    31  ar
    38    31    32  ar
    39    32    33  ar
    40    33    34  ar
    41    34    35  ar
    42    23    24   1
    43    24    25   1
    44    25    44   1
    45    44    28   1
    46    44    26  am
    47    26    47   2
    48    26    29   1
    49    29    37  ar
    50    29    36  ar
    51    36    28   1
    52    36    38  ar
    53    38    39  ar
    54    39    40  ar
    55    40    37  ar
    56    41    52   1
    57     1    53   1
    58     1    54   1
    59     2    55   1
    60     4    56   1
    61     4    57   1
    62     4    58   1
    63     6    59   1
    64     7    60   1
    65     8    61   1
    66     8    62   1
    67     9    63   1
    68     9    64   1
    69    11    65   1
    70    12    66   1
    71    14    67   1
    72    15    68   1
    73    17    69   1
    74    18    70   1
    75    18    71   1
    76    19    72   1
    77    20    73   1
    78    20    74   1
    79    21    75   1
    80    22    76   1
    81    22    77   1
    82    22    78   1
    83    23    79   1
    84    23    80   1
    85    24    81   1
    86    24    82   1
    87    25    83   1
    88    25    84   1
    89    28    85   1
    90    28    86   1
    91    31    87   1
    92    32    88   1
    93    33    89   1
    94    34    90   1
    95    35    91   1
    96    37    92   1
    97    38    93   1
    98    39    94   1
    99    40    95   1
   100    42    96   1
   101    43    97   1
   102    45    98   1
   103    46    99   1
@<TRIPOS>SUBSTRUCTURE
     1  L04      1

