@<TRIPOS>MOLECULE
1hfs_ligand_020
    99   103
SMALL
GAST_HUCK
****
This file was generated by PARSER (from files_GN.cpp)

@<TRIPOS>ATOM
      1 C1         30.0570   39.1582   24.2449 C.3         1 L04      -0.0384
      2 C2         31.5637   39.6047   24.1813 C.3         1 L04       0.0141
      3 C3         32.3570   39.3783   25.4217 C.2         1 L04       0.0380
      4 C4         30.5980   38.5968   16.7780 C.3         1 L04      -0.0625
      5 C5         40.2082   39.8972   21.0032 C.ar        1 L04      -0.0257
      6 C6         40.9282   40.2627   19.8428 C.ar        1 L04      -0.0571
      7 C7         32.4005   41.3655   22.3414 C.3         1 L04       0.0523
      8 C8         33.9195   40.9736   22.3767 C.3         1 L04      -0.0232
      9 C9         34.8461   41.9015   21.5429 C.3         1 L04      -0.0166
     10 C10        36.2414   41.3791   21.4533 C.ar        1 L04      -0.0424
     11 C11        36.5001   40.1975   20.7203 C.ar        1 L04      -0.0596
     12 C12        37.8086   39.7032   20.5847 C.ar        1 L04      -0.0610
     13 C13        38.8921   40.3720   21.1939 C.ar        1 L04      -0.0267
     14 C14        38.6423   41.5374   21.9506 C.ar        1 L04      -0.0610
     15 C15        37.3309   42.0369   22.0748 C.ar        1 L04      -0.0596
     16 C16        31.6593   40.7753   21.2246 C.2         1 L04       0.1816
     17 C17        42.2197   39.7523   19.6117 C.ar        1 L04      -0.0282
     18 C18        31.6755   41.1056   23.7060 C.3         1 L04      -0.0186
     19 C19        30.0471   41.0985   19.3430 C.3         1 L04       0.1369
     20 C20        30.9280   40.8480   18.0670 C.3         1 L04      -0.0096
     21 C21        30.3404   40.1316   16.7926 C.3         1 L04      -0.0425
     22 C22        28.8536   40.4449   16.4712 C.3         1 L04      -0.0625
     23 C23        29.7317   37.6505   24.4181 C.3         1 L04      -0.0495
     24 C24        30.4915   36.7157   23.4324 C.3         1 L04      -0.0323
     25 C25        31.0289   35.4093   24.0787 C.3         1 L04       0.0356
     26 C26        33.1107   35.7270   25.3533 C.2         1 L04       0.2046
     27 C27        29.1354   40.0321   19.7457 C.2         1 L04       0.2292
     28 C28        33.3776   35.0067   23.2030 C.3         1 L04       0.0703
     29 C29        34.4489   35.5497   25.1944 C.ar        1 L04       0.0535
     30 C30        26.9662   39.4587   20.6326 C.ar        1 L04       0.0663
     31 C31        26.3970   39.5929   21.9173 C.ar        1 L04      -0.0413
     32 C32        25.3916   38.7043   22.3502 C.ar        1 L04      -0.0755
     33 C33        24.9254   37.6945   21.4894 C.ar        1 L04      -0.0772
     34 C34        25.4488   37.5855   20.1882 C.ar        1 L04      -0.0755
     35 C35        26.4628   38.4607   19.7628 C.ar        1 L04      -0.0413
     36 C36        34.6635   35.1140   23.8915 C.ar        1 L04      -0.0003
     37 C37        35.5216   35.7386   26.0852 C.ar        1 L04      -0.0484
     38 C38        35.9650   34.8536   23.4240 C.ar        1 L04      -0.0524
     39 C39        37.0532   35.0493   24.2993 C.ar        1 L04      -0.0641
     40 C40        36.8328   35.4870   25.6268 C.ar        1 L04      -0.0630
     41 C41        42.8066   38.8725   20.5402 C.ar        1 L04       0.1322
     42 C42        42.1003   38.5091   21.7040 C.ar        1 L04      -0.0282
     43 C43        40.8086   39.0191   21.9359 C.ar        1 L04      -0.0571
     44 N1         32.4671   35.4159   24.2365 N.am        1 L04      -0.2613
     45 N18        30.8620   41.5214   20.4561 N.am        1 L04      -0.2649
     46 N29        27.9451   40.3330   20.2619 N.am        1 L04      -0.2320
     47 O1         32.5891   36.1143   26.3874 O.2         1 L04      -0.3882
     48 O4         33.5742   39.9673   25.5276 O.co2       1 L04      -0.5687
     49 O5         32.1977   38.2763   26.2144 O.co2       1 L04      -0.5687
     50 O17        31.7360   39.5662   21.0375 O.2         1 L04      -0.3966
     51 O28        29.5228   38.8719   19.7151 O.2         1 L04      -0.3823
     52 F1         43.9992   38.3921   20.3216 F           1 L04      -0.1835
     53 H1         29.5666   39.6962   25.0580 H           1 L04       0.0286
     54 H2         29.5680   39.4675   23.3135 H           1 L04       0.0286
     55 H3         32.0376   38.9575   23.4315 H           1 L04       0.0467
     56 H4         30.2715   38.1635   15.8308 H           1 L04       0.0232
     57 H5         30.0635   38.0942   17.5839 H           1 L04       0.0232
     58 H6         31.6646   38.3901   16.8887 H           1 L04       0.0232
     59 H7         40.5145   40.8993   19.1558 H           1 L04       0.0606
     60 H8         32.3712   42.4494   22.2256 H           1 L04       0.0541
     61 H9         34.0364   39.9390   22.0487 H           1 L04       0.0315
     62 H10        34.2806   41.0223   23.4081 H           1 L04       0.0315
     63 H11        34.8369   42.8902   22.0150 H           1 L04       0.0430
     64 H12        34.4458   42.0312   20.5322 H           1 L04       0.0430
     65 H13        35.7337   39.6978   20.2637 H           1 L04       0.0559
     66 H14        37.9676   38.8609   20.0266 H           1 L04       0.0604
     67 H15        39.4139   42.0346   22.4013 H           1 L04       0.0604
     68 H16        37.1764   42.8838   22.6249 H           1 L04       0.0559
     69 H17        42.7262   40.0192   18.7635 H           1 L04       0.0604
     70 H18        32.1888   41.7020   24.4677 H           1 L04       0.0313
     71 H19        30.6754   41.5572   23.6436 H           1 L04       0.0313
     72 H20        29.4305   41.9696   19.1029 H           1 L04       0.0805
     73 H21        31.8298   40.3170   18.3699 H           1 L04       0.0315
     74 H22        31.2696   41.8371   17.7463 H           1 L04       0.0315
     75 H23        30.9065   40.5152   15.9370 H           1 L04       0.0298
     76 H24        28.6787   41.5214   16.4777 H           1 L04       0.0232
     77 H25        28.1875   39.9732   17.1941 H           1 L04       0.0232
     78 H26        28.5952   40.0641   15.4795 H           1 L04       0.0232
     79 H27        28.6549   37.5160   24.2555 H           1 L04       0.0267
     80 H28        29.9011   37.3543   25.4466 H           1 L04       0.0267
     81 H29        31.3302   37.2596   22.9674 H           1 L04       0.0285
     82 H30        29.8046   36.4553   22.6212 H           1 L04       0.0285
     83 H31        30.7582   34.5582   23.4481 H           1 L04       0.0523
     84 H32        30.5301   35.2260   25.0379 H           1 L04       0.0523
     85 H33        33.3399   35.6843   22.3445 H           1 L04       0.0699
     86 H34        33.1872   33.9739   22.9008 H           1 L04       0.0699
     87 H35        26.7266   40.3200   22.5544 H           1 L04       0.0502
     88 H36        25.0010   38.7936   23.2910 H           1 L04       0.0577
     89 H37        24.1981   37.0455   21.8042 H           1 L04       0.0487
     90 H38        25.0888   36.8704   19.5504 H           1 L04       0.0577
     91 H39        26.8186   38.3800   18.8070 H           1 L04       0.0502
     92 H40        35.3654   36.0660   27.0409 H           1 L04       0.0651
     93 H41        36.1166   34.5216   22.4743 H           1 L04       0.0569
     94 H42        38.0046   34.8632   23.9757 H           1 L04       0.0635
     95 H43        37.6272   35.6156   26.2556 H           1 L04       0.0572
     96 H44        42.5222   37.8675   22.3802 H           1 L04       0.0604
     97 H45        40.3043   38.7373   22.7817 H           1 L04       0.0606
     98 H46        30.8641   42.4733   20.6472 H           1 L04       0.1883
     99 H47        27.7762   41.2712   20.4452 H           1 L04       0.2257
@<TRIPOS>BOND
     1     1    23   1
     2     1     2   1
     3     2    18   1
     4     2     3   1
     5     3    49  ar
     6     3    48  ar
     7    18     7   1
     8     7    16   1
     9     7     8   1
    10     8     9   1
    11     9    10   1
    12    10    15  ar
    13    10    11  ar
    14    11    12  ar
    15    12    13  ar
    16    13    14  ar
    17    13     5   1
    18     5    43  ar
    19     5     6  ar
    20     6    17  ar
    21    17    41  ar
    22    41    42  ar
    23    42    43  ar
    24    14    15  ar
    25    16    50   2
    26    16    45  am
    27    45    19   1
    28    19    27   1
    29    19    20   1
    30    20    21   1
    31    21     4   1
    32    21    22   1
    33    27    51   2
    34    27    46  am
    35    46    30   1
    36    30    35  ar
    37    30    31  ar
    38    31    32  ar
    39    32    33  ar
    40    33    34  ar
    41    34    35  ar
    42    23    24   1
    43    24    25   1
    44    25    44   1
    45    44    28   1
    46    44    26  am
    47    26    47   2
    48    26    29   1
    49    29    37  ar
    50    29    36  ar
    51    36    28   1
    52    36    38  ar
    53    38    39  ar
    54    39    40  ar
    55    40    37  ar
    56    41    52   1
    57     1    53   1
    58     1    54   1
    59     2    55   1
    60     4    56   1
    61     4    57   1
    62     4    58   1
    63     6    59   1
    64     7    60   1
    65     8    61   1
    66     8    62   1
    67     9    63   1
    68     9    64   1
    69    11    65   1
    70    12    66   1
    71    14    67   1
    72    15    68   1
    73    17    69   1
    74    18    70   1
    75    18    71   1
    76    19    72   1
    77    20    73   1
    78    20    74   1
    79    21    75   1
    80    22    76   1
    81    22    77   1
    82    22    78   1
    83    23    79   1
    84    23    80   1
    85    24    81   1
    86    24    82   1
    87    25    83   1
    88    25    84   1
    89    28    85   1
    90    28    86   1
    91    31    87   1
    92    32    88   1
    93    33    89   1
    94    34    90   1
    95    35    91   1
    96    37    92   1
    97    38    93   1
    98    39    94   1
    99    40    95   1
   100    42    96   1
   101    43    97   1
   102    45    98   1
   103    46    99   1
@<TRIPOS>SUBSTRUCTURE
     1  L04      1

