@<TRIPOS>MOLECULE
1hfs_ligand_035
    99   103
SMALL
GAST_HUCK
****
This file was generated by PARSER (from files_GN.cpp)

@<TRIPOS>ATOM
      1 C1         30.8262   39.4022   24.8013 C.3         1 L04      -0.0384
      2 C2         30.4153   40.7046   24.0291 C.3         1 L04       0.0141
      3 C3         29.5114   41.5842   24.8163 C.2         1 L04       0.0380
      4 C4         27.7576   46.6517   17.4391 C.3         1 L04      -0.0625
      5 C5         37.6469   38.0722   22.4473 C.ar        1 L04      -0.0257
      6 C6         38.6805   38.5856   23.2648 C.ar        1 L04      -0.0571
      7 C7         30.4696   41.3712   21.4246 C.3         1 L04       0.0523
      8 C8         31.8266   40.7728   20.8742 C.3         1 L04      -0.0232
      9 C9         33.1434   41.4741   21.3383 C.3         1 L04      -0.0166
     10 C10        34.2775   40.5410   21.6055 C.ar        1 L04      -0.0424
     11 C11        34.4161   39.8918   22.8573 C.ar        1 L04      -0.0596
     12 C12        35.5170   39.0581   23.1272 C.ar        1 L04      -0.0610
     13 C13        36.5148   38.8593   22.1479 C.ar        1 L04      -0.0267
     14 C14        36.3762   39.4813   20.8879 C.ar        1 L04      -0.0610
     15 C15        35.2687   40.3109   20.6206 C.ar        1 L04      -0.0596
     16 C16        29.5363   41.5945   20.3113 C.2         1 L04       0.1816
     17 C17        39.7844   37.7830   23.6012 C.ar        1 L04      -0.0282
     18 C18        29.8488   40.4904   22.5793 C.3         1 L04      -0.0186
     19 C19        29.0334   42.9409   18.2804 C.3         1 L04       0.1369
     20 C20        28.9122   44.5052   18.2280 C.3         1 L04      -0.0096
     21 C21        27.7028   45.0968   17.4308 C.3         1 L04      -0.0425
     22 C22        27.5839   44.5601   15.9803 C.3         1 L04      -0.0625
     23 C23        29.9406   38.1270   24.6269 C.3         1 L04      -0.0495
     24 C24        30.4331   37.0951   23.5563 C.3         1 L04      -0.0323
     25 C25        30.9393   35.7234   24.0980 C.3         1 L04       0.0356
     26 C26        33.0559   36.1305   25.2881 C.2         1 L04       0.2046
     27 C27        29.7058   42.2971   17.1440 C.2         1 L04       0.2292
     28 C28        33.2336   34.9917   23.3132 C.3         1 L04       0.0703
     29 C29        34.3642   35.7808   25.1869 C.ar        1 L04       0.0535
     30 C30        30.6450   40.1545   16.3933 C.ar        1 L04       0.0663
     31 C31        30.8574   38.8408   16.8672 C.ar        1 L04      -0.0413
     32 C32        31.5637   37.8991   16.0940 C.ar        1 L04      -0.0755
     33 C33        32.0656   38.2638   14.8345 C.ar        1 L04      -0.0772
     34 C34        31.8658   39.5657   14.3475 C.ar        1 L04      -0.0755
     35 C35        31.1569   40.5056   15.1180 C.ar        1 L04      -0.0413
     36 C36        34.5218   35.0770   23.9976 C.ar        1 L04      -0.0003
     37 C37        35.4517   35.9765   26.0603 C.ar        1 L04      -0.0484
     38 C38        35.7713   34.5497   23.6303 C.ar        1 L04      -0.0524
     39 C39        36.8691   34.7418   24.4938 C.ar        1 L04      -0.0641
     40 C40        36.7101   35.4505   25.7060 C.ar        1 L04      -0.0630
     41 C41        39.8660   36.4598   23.1235 C.ar        1 L04       0.1322
     42 C42        38.8413   35.9442   22.3080 C.ar        1 L04      -0.0282
     43 C43        37.7356   36.7442   21.9717 C.ar        1 L04      -0.0571
     44 N1         32.3716   35.6561   24.2546 N.am        1 L04      -0.2613
     45 N18        29.7681   42.5959   19.4720 N.am        1 L04      -0.2649
     46 N29        29.9333   40.9867   17.2177 N.am        1 L04      -0.2320
     47 O1         32.5913   36.7324   26.2420 O.2         1 L04      -0.3882
     48 O4         28.4815   41.0550   25.5151 O.co2       1 L04      -0.5687
     49 O5         29.3778   42.8801   24.4476 O.co2       1 L04      -0.5687
     50 O17        28.5896   40.8419   20.1135 O.2         1 L04      -0.3966
     51 O28        30.1096   42.9895   16.2079 O.2         1 L04      -0.3823
     52 F1         40.8881   35.7109   23.4394 F           1 L04      -0.1835
     53 H1         31.8552   39.1418   24.5329 H           1 L04       0.0286
     54 H2         30.8576   39.6398   25.8723 H           1 L04       0.0286
     55 H3         31.3452   41.2651   23.9599 H           1 L04       0.0467
     56 H4         26.8768   47.0751   16.9542 H           1 L04       0.0232
     57 H5         28.6451   47.0044   16.9104 H           1 L04       0.0232
     58 H6         27.7909   47.0301   18.4612 H           1 L04       0.0232
     59 H7         38.6297   39.5426   23.6271 H           1 L04       0.0606
     60 H8         30.6705   42.3620   21.8461 H           1 L04       0.0541
     61 H9         31.8407   40.8108   19.7790 H           1 L04       0.0315
     62 H10        31.8670   39.7084   21.1229 H           1 L04       0.0315
     63 H11        32.9665   42.0760   22.2212 H           1 L04       0.0430
     64 H12        33.4614   42.1884   20.5751 H           1 L04       0.0430
     65 H13        33.7236   40.0327   23.5944 H           1 L04       0.0559
     66 H14        35.6018   38.6167   24.0490 H           1 L04       0.0604
     67 H15        37.0903   39.3488   20.1640 H           1 L04       0.0604
     68 H16        35.2008   40.7674   19.7080 H           1 L04       0.0559
     69 H17        40.5236   38.1595   24.1983 H           1 L04       0.0604
     70 H18        28.7640   40.6583   22.6374 H           1 L04       0.0313
     71 H19        29.9596   39.4445   22.2885 H           1 L04       0.0313
     72 H20        28.0121   42.5457   18.3496 H           1 L04       0.0805
     73 H21        29.8485   44.9375   17.8624 H           1 L04       0.0315
     74 H22        28.8001   44.8608   19.2581 H           1 L04       0.0315
     75 H23        26.7888   44.8093   17.9597 H           1 L04       0.0298
     76 H24        27.3975   43.4875   15.9880 H           1 L04       0.0232
     77 H25        28.5002   44.7607   15.4238 H           1 L04       0.0232
     78 H26        26.7443   45.0365   15.4637 H           1 L04       0.0232
     79 H27        28.9260   38.4405   24.3708 H           1 L04       0.0267
     80 H28        29.8584   37.6259   25.5969 H           1 L04       0.0267
     81 H29        31.2283   37.5200   22.9386 H           1 L04       0.0285
     82 H30        29.5967   36.8946   22.8796 H           1 L04       0.0285
     83 H31        30.6267   34.9482   23.3894 H           1 L04       0.0523
     84 H32        30.4503   35.4715   25.0465 H           1 L04       0.0523
     85 H33        33.2669   35.5269   22.3598 H           1 L04       0.0699
     86 H34        32.9407   33.9484   23.1601 H           1 L04       0.0699
     87 H35        30.5035   38.5560   17.7845 H           1 L04       0.0502
     88 H36        31.7008   36.9474   16.4433 H           1 L04       0.0577
     89 H37        32.5657   37.5798   14.2683 H           1 L04       0.0487
     90 H38        32.2185   39.8254   13.4234 H           1 L04       0.0577
     91 H39        31.0008   41.4294   14.7184 H           1 L04       0.0502
     92 H40        35.3264   36.4761   26.9440 H           1 L04       0.0651
     93 H41        35.8785   34.0258   22.7596 H           1 L04       0.0569
     94 H42        37.7825   34.3578   24.2437 H           1 L04       0.0635
     95 H43        37.5071   35.5783   26.3311 H           1 L04       0.0572
     96 H44        38.8943   34.9833   21.9631 H           1 L04       0.0604
     97 H45        36.9962   36.3539   21.3800 H           1 L04       0.0606
     98 H46        30.5480   43.1400   19.6654 H           1 L04       0.1883
     99 H47        29.6059   40.5510   18.0273 H           1 L04       0.2257
@<TRIPOS>BOND
     1     1    23   1
     2     1     2   1
     3     2    18   1
     4     2     3   1
     5     3    49  ar
     6     3    48  ar
     7    18     7   1
     8     7    16   1
     9     7     8   1
    10     8     9   1
    11     9    10   1
    12    10    15  ar
    13    10    11  ar
    14    11    12  ar
    15    12    13  ar
    16    13    14  ar
    17    13     5   1
    18     5    43  ar
    19     5     6  ar
    20     6    17  ar
    21    17    41  ar
    22    41    42  ar
    23    42    43  ar
    24    14    15  ar
    25    16    50   2
    26    16    45  am
    27    45    19   1
    28    19    27   1
    29    19    20   1
    30    20    21   1
    31    21     4   1
    32    21    22   1
    33    27    51   2
    34    27    46  am
    35    46    30   1
    36    30    35  ar
    37    30    31  ar
    38    31    32  ar
    39    32    33  ar
    40    33    34  ar
    41    34    35  ar
    42    23    24   1
    43    24    25   1
    44    25    44   1
    45    44    28   1
    46    44    26  am
    47    26    47   2
    48    26    29   1
    49    29    37  ar
    50    29    36  ar
    51    36    28   1
    52    36    38  ar
    53    38    39  ar
    54    39    40  ar
    55    40    37  ar
    56    41    52   1
    57     1    53   1
    58     1    54   1
    59     2    55   1
    60     4    56   1
    61     4    57   1
    62     4    58   1
    63     6    59   1
    64     7    60   1
    65     8    61   1
    66     8    62   1
    67     9    63   1
    68     9    64   1
    69    11    65   1
    70    12    66   1
    71    14    67   1
    72    15    68   1
    73    17    69   1
    74    18    70   1
    75    18    71   1
    76    19    72   1
    77    20    73   1
    78    20    74   1
    79    21    75   1
    80    22    76   1
    81    22    77   1
    82    22    78   1
    83    23    79   1
    84    23    80   1
    85    24    81   1
    86    24    82   1
    87    25    83   1
    88    25    84   1
    89    28    85   1
    90    28    86   1
    91    31    87   1
    92    32    88   1
    93    33    89   1
    94    34    90   1
    95    35    91   1
    96    37    92   1
    97    38    93   1
    98    39    94   1
    99    40    95   1
   100    42    96   1
   101    43    97   1
   102    45    98   1
   103    46    99   1
@<TRIPOS>SUBSTRUCTURE
     1  L04      1

