@<TRIPOS>MOLECULE
1hfs_ligand_033
    99   103
SMALL
GAST_HUCK
****
This file was generated by PARSER (from files_GN.cpp)

@<TRIPOS>ATOM
      1 C1         33.1152   35.7599   23.6175 C.3         1 L04      -0.0384
      2 C2         32.3292   37.1171   23.6372 C.3         1 L04       0.0141
      3 C3         31.2466   37.1178   24.6674 C.2         1 L04       0.0380
      4 C4         25.2474   38.0115   20.4506 C.3         1 L04      -0.0625
      5 C5         30.2651   42.3409   27.4840 C.ar        1 L04      -0.0257
      6 C6         29.9082   41.2851   28.3509 C.ar        1 L04      -0.0571
      7 C7         31.2843   38.9320   21.9612 C.3         1 L04       0.0523
      8 C8         32.4815   39.9414   21.8616 C.3         1 L04      -0.0232
      9 C9         32.0825   41.4249   22.1231 C.3         1 L04      -0.0166
     10 C10        31.5990   41.6492   23.5127 C.ar        1 L04      -0.0424
     11 C11        32.5240   41.7217   24.5813 C.ar        1 L04      -0.0596
     12 C12        32.0850   41.9359   25.8996 C.ar        1 L04      -0.0610
     13 C13        30.7047   42.0723   26.1734 C.ar        1 L04      -0.0267
     14 C14        29.7761   41.9881   25.1132 C.ar        1 L04      -0.0610
     15 C15        30.2224   41.7854   23.7929 C.ar        1 L04      -0.0596
     16 C16        30.4514   38.9821   20.7683 C.2         1 L04       0.1816
     17 C17        29.4790   41.5674   29.6586 C.ar        1 L04      -0.0282
     18 C18        31.7836   37.4574   22.2085 C.3         1 L04      -0.0186
     19 C19        28.1595   39.1952   19.7492 C.3         1 L04       0.1369
     20 C20        26.8652   40.0285   20.0569 C.3         1 L04      -0.0096
     21 C21        25.7638   39.3888   20.9639 C.3         1 L04      -0.0425
     22 C22        26.1593   39.3077   22.4615 C.3         1 L04      -0.0625
     23 C23        33.9842   35.4617   24.8728 C.3         1 L04      -0.0495
     24 C24        35.2633   36.3373   25.0325 C.3         1 L04      -0.0323
     25 C25        36.5389   35.8144   24.2749 C.3         1 L04       0.0356
     26 C26        36.7569   37.5640   22.4255 C.2         1 L04       0.2046
     27 C27        28.7346   39.5886   18.4556 C.2         1 L04       0.2292
     28 C28        38.4913   36.1215   22.7948 C.3         1 L04       0.0703
     29 C29        37.7608   37.9663   21.5920 C.ar        1 L04       0.0535
     30 C30        30.0698   38.7001   16.6392 C.ar        1 L04       0.0663
     31 C31        30.9122   37.5761   16.4700 C.ar        1 L04      -0.0413
     32 C32        31.9168   37.5730   15.4881 C.ar        1 L04      -0.0755
     33 C33        32.0838   38.6917   14.6550 C.ar        1 L04      -0.0772
     34 C34        31.2238   39.7999   14.7848 C.ar        1 L04      -0.0755
     35 C35        30.2203   39.8047   15.7752 C.ar        1 L04      -0.0413
     36 C36        38.8390   37.1085   21.7884 C.ar        1 L04      -0.0003
     37 C37        37.8541   39.0357   20.6757 C.ar        1 L04      -0.0484
     38 C38        40.0435   37.2814   21.0835 C.ar        1 L04      -0.0524
     39 C39        40.1445   38.3360   20.1579 C.ar        1 L04      -0.0641
     40 C40        39.0609   39.2126   19.9639 C.ar        1 L04      -0.0630
     41 C41        29.4070   42.9014   30.1039 C.ar        1 L04       0.1322
     42 C42        29.7508   43.9539   29.2409 C.ar        1 L04      -0.0282
     43 C43        30.1707   43.6772   27.9283 C.ar        1 L04      -0.0571
     44 N1         37.1516   36.5123   23.1540 N.am        1 L04      -0.2613
     45 N18        29.1340   39.2858   20.8107 N.am        1 L04      -0.2649
     46 N29        29.1543   38.6157   17.6490 N.am        1 L04      -0.2320
     47 O1         35.6819   38.1455   22.5179 O.2         1 L04      -0.3882
     48 O4         29.9320   37.2611   24.3437 O.co2       1 L04      -0.5687
     49 O5         31.5665   37.0052   25.9802 O.co2       1 L04      -0.5687
     50 O17        30.9958   38.7660   19.6834 O.2         1 L04      -0.3966
     51 O28        29.0392   40.7628   18.2888 O.2         1 L04      -0.3823
     52 F1         29.0345   43.1638   31.3223 F           1 L04      -0.1835
     53 H1         32.3882   34.9426   23.4990 H           1 L04       0.0286
     54 H2         33.7789   35.7328   22.7410 H           1 L04       0.0286
     55 H3         33.0301   37.9234   23.8980 H           1 L04       0.0467
     56 H4         24.3723   37.7024   21.0390 H           1 L04       0.0232
     57 H5         26.0272   37.2521   20.5408 H           1 L04       0.0232
     58 H6         24.9361   38.0877   19.4023 H           1 L04       0.0232
     59 H7         29.9721   40.3113   28.0348 H           1 L04       0.0606
     60 H8         30.6741   39.2083   22.8222 H           1 L04       0.0541
     61 H9         32.9318   39.8834   20.8576 H           1 L04       0.0315
     62 H10        33.2669   39.6590   22.5765 H           1 L04       0.0315
     63 H11        31.3270   41.7287   21.3868 H           1 L04       0.0430
     64 H12        32.9581   42.0561   21.9576 H           1 L04       0.0430
     65 H13        33.5302   41.6366   24.4075 H           1 L04       0.0559
     66 H14        32.7734   42.0041   26.6558 H           1 L04       0.0604
     67 H15        28.7724   42.0941   25.2937 H           1 L04       0.0604
     68 H16        29.5298   41.7472   23.0420 H           1 L04       0.0559
     69 H17        29.2276   40.7998   30.2794 H           1 L04       0.0604
     70 H18        30.9577   36.7632   21.9966 H           1 L04       0.0313
     71 H19        32.5618   37.2381   21.4610 H           1 L04       0.0313
     72 H20        27.8495   38.1403   19.7102 H           1 L04       0.0805
     73 H21        26.3746   40.2884   19.1148 H           1 L04       0.0315
     74 H22        27.1769   40.9742   20.5112 H           1 L04       0.0315
     75 H23        24.8994   40.0661   20.9112 H           1 L04       0.0298
     76 H24        26.4831   40.2905   22.8199 H           1 L04       0.0232
     77 H25        26.9665   38.5875   22.6048 H           1 L04       0.0232
     78 H26        25.3024   38.9906   23.0612 H           1 L04       0.0232
     79 H27        34.2721   34.3981   24.8385 H           1 L04       0.0267
     80 H28        33.3526   35.5829   25.7695 H           1 L04       0.0267
     81 H29        35.4912   36.3337   26.1102 H           1 L04       0.0285
     82 H30        35.0433   37.3774   24.7743 H           1 L04       0.0285
     83 H31        36.3408   34.7779   23.9467 H           1 L04       0.0523
     84 H32        37.3277   35.7314   25.0369 H           1 L04       0.0523
     85 H33        38.5165   35.1196   22.3539 H           1 L04       0.0699
     86 H34        39.1861   36.1797   23.6427 H           1 L04       0.0699
     87 H35        30.8167   36.7618   17.0849 H           1 L04       0.0502
     88 H36        32.5289   36.7641   15.3850 H           1 L04       0.0577
     89 H37        32.8118   38.6897   13.9351 H           1 L04       0.0487
     90 H38        31.3338   40.6065   14.1630 H           1 L04       0.0577
     91 H39        29.5969   40.6121   15.8462 H           1 L04       0.0502
     92 H40        37.0679   39.6721   20.5440 H           1 L04       0.0651
     93 H41        40.8279   36.6399   21.2295 H           1 L04       0.0569
     94 H42        41.0100   38.4735   19.6347 H           1 L04       0.0635
     95 H43        39.1414   39.9824   19.3001 H           1 L04       0.0572
     96 H44        29.6984   44.9209   29.5582 H           1 L04       0.0604
     97 H45        30.4055   44.4513   27.2990 H           1 L04       0.0606
     98 H46        28.7980   39.5207   21.7012 H           1 L04       0.1883
     99 H47        28.9762   37.7152   17.9652 H           1 L04       0.2257
@<TRIPOS>BOND
     1     1    23   1
     2     1     2   1
     3     2    18   1
     4     2     3   1
     5     3    49  ar
     6     3    48  ar
     7    18     7   1
     8     7    16   1
     9     7     8   1
    10     8     9   1
    11     9    10   1
    12    10    15  ar
    13    10    11  ar
    14    11    12  ar
    15    12    13  ar
    16    13    14  ar
    17    13     5   1
    18     5    43  ar
    19     5     6  ar
    20     6    17  ar
    21    17    41  ar
    22    41    42  ar
    23    42    43  ar
    24    14    15  ar
    25    16    50   2
    26    16    45  am
    27    45    19   1
    28    19    27   1
    29    19    20   1
    30    20    21   1
    31    21     4   1
    32    21    22   1
    33    27    51   2
    34    27    46  am
    35    46    30   1
    36    30    35  ar
    37    30    31  ar
    38    31    32  ar
    39    32    33  ar
    40    33    34  ar
    41    34    35  ar
    42    23    24   1
    43    24    25   1
    44    25    44   1
    45    44    28   1
    46    44    26  am
    47    26    47   2
    48    26    29   1
    49    29    37  ar
    50    29    36  ar
    51    36    28   1
    52    36    38  ar
    53    38    39  ar
    54    39    40  ar
    55    40    37  ar
    56    41    52   1
    57     1    53   1
    58     1    54   1
    59     2    55   1
    60     4    56   1
    61     4    57   1
    62     4    58   1
    63     6    59   1
    64     7    60   1
    65     8    61   1
    66     8    62   1
    67     9    63   1
    68     9    64   1
    69    11    65   1
    70    12    66   1
    71    14    67   1
    72    15    68   1
    73    17    69   1
    74    18    70   1
    75    18    71   1
    76    19    72   1
    77    20    73   1
    78    20    74   1
    79    21    75   1
    80    22    76   1
    81    22    77   1
    82    22    78   1
    83    23    79   1
    84    23    80   1
    85    24    81   1
    86    24    82   1
    87    25    83   1
    88    25    84   1
    89    28    85   1
    90    28    86   1
    91    31    87   1
    92    32    88   1
    93    33    89   1
    94    34    90   1
    95    35    91   1
    96    37    92   1
    97    38    93   1
    98    39    94   1
    99    40    95   1
   100    42    96   1
   101    43    97   1
   102    45    98   1
   103    46    99   1
@<TRIPOS>SUBSTRUCTURE
     1  L04      1

