@<TRIPOS>MOLECULE
1hfs_ligand_052
    99   103
SMALL
GAST_HUCK
****
This file was generated by PARSER (from files_GN.cpp)

@<TRIPOS>ATOM
      1 C1         29.8879   37.3208   23.9996 C.3         1 L04      -0.0384
      2 C2         31.3036   37.0014   24.5738 C.3         1 L04       0.0141
      3 C3         31.9045   38.2211   25.1456 C.2         1 L04       0.0380
      4 C4         33.9585   41.5545   20.0822 C.3         1 L04      -0.0625
      5 C5         37.7932   31.8979   28.6359 C.ar        1 L04      -0.0257
      6 C6         37.0570   30.7726   29.0919 C.ar        1 L04      -0.0571
      7 C7         33.7719   36.3566   23.6723 C.3         1 L04       0.0523
      8 C8         34.4396   34.9512   23.8871 C.3         1 L04      -0.0232
      9 C9         35.9929   34.9807   24.0935 C.3         1 L04      -0.0166
     10 C10        36.4648   34.1876   25.2578 C.ar        1 L04      -0.0424
     11 C11        36.3570   32.7803   25.2620 C.ar        1 L04      -0.0596
     12 C12        36.7835   32.0289   26.3725 C.ar        1 L04      -0.0610
     13 C13        37.3479   32.6606   27.5098 C.ar        1 L04      -0.0267
     14 C14        37.4572   34.0725   27.4970 C.ar        1 L04      -0.0610
     15 C15        37.0379   34.8215   26.3835 C.ar        1 L04      -0.0596
     16 C16        34.3930   37.0959   22.5596 C.2         1 L04       0.1816
     17 C17        37.4866   30.0273   30.2047 C.ar        1 L04      -0.0282
     18 C18        32.2079   36.3130   23.4919 C.3         1 L04      -0.0186
     19 C19        35.3075   39.2223   21.6942 C.3         1 L04       0.1369
     20 C20        35.3629   40.7336   22.1237 C.3         1 L04      -0.0096
     21 C21        34.2289   41.6866   21.6087 C.3         1 L04      -0.0425
     22 C22        32.9129   41.5695   22.4191 C.3         1 L04      -0.0625
     23 C23        28.8546   37.8426   25.0501 C.3         1 L04      -0.0495
     24 C24        27.4520   38.1941   24.4879 C.3         1 L04      -0.0323
     25 C25        27.2737   39.6427   23.9591 C.3         1 L04       0.0356
     26 C26        28.6808   40.8116   22.2976 C.2         1 L04       0.2046
     27 C27        36.6511   38.7146   21.4344 C.2         1 L04       0.2292
     28 C28        27.1930   39.2868   21.4618 C.3         1 L04       0.0703
     29 C29        28.7713   40.9141   20.9425 C.ar        1 L04       0.0535
     30 C30        38.8294   38.1816   22.4608 C.ar        1 L04       0.0663
     31 C31        39.6483   37.9530   21.3259 C.ar        1 L04      -0.0413
     32 C32        40.9835   37.5389   21.4715 C.ar        1 L04      -0.0755
     33 C33        41.5299   37.3561   22.7504 C.ar        1 L04      -0.0772
     34 C34        40.7419   37.5916   23.8862 C.ar        1 L04      -0.0755
     35 C35        39.4055   38.0044   23.7420 C.ar        1 L04      -0.0413
     36 C36        27.8845   39.9982   20.3876 C.ar        1 L04      -0.0003
     37 C37        29.5256   41.7706   20.1188 C.ar        1 L04      -0.0484
     38 C38        27.7272   39.8921   18.9926 C.ar        1 L04      -0.0524
     39 C39        28.4848   40.7390   18.1577 C.ar        1 L04      -0.0641
     40 C40        29.3833   41.6718   18.7184 C.ar        1 L04      -0.0630
     41 C41        38.6600   30.3939   30.8867 C.ar        1 L04       0.1322
     42 C42        39.4039   31.5041   30.4512 C.ar        1 L04      -0.0282
     43 C43        38.9757   32.2463   29.3352 C.ar        1 L04      -0.0571
     44 N1         27.7717   39.9010   22.6291 N.am        1 L04      -0.2613
     45 N18        34.6521   38.3976   22.6745 N.am        1 L04      -0.2649
     46 N29        37.5242   38.6095   22.4366 N.am        1 L04      -0.2320
     47 O1         29.3220   41.5072   23.0729 O.2         1 L04      -0.3882
     48 O4         32.0764   39.3205   24.3974 O.co2       1 L04      -0.5687
     49 O5         32.5203   38.1675   26.3385 O.co2       1 L04      -0.5687
     50 O17        34.6485   36.4941   21.5199 O.2         1 L04      -0.3966
     51 O28        36.9235   38.3766   20.2898 O.2         1 L04      -0.3823
     52 F1         39.0574   29.7055   31.9206 F           1 L04      -0.1835
     53 H1         29.9765   38.0686   23.2032 H           1 L04       0.0286
     54 H2         29.4664   36.4181   23.5415 H           1 L04       0.0286
     55 H3         31.1695   36.2807   25.3840 H           1 L04       0.0467
     56 H4         33.4534   42.4470   19.7081 H           1 L04       0.0232
     57 H5         33.3204   40.6940   19.8709 H           1 L04       0.0232
     58 H6         34.8979   41.4354   19.5354 H           1 L04       0.0232
     59 H7         36.1894   30.4958   28.6253 H           1 L04       0.0606
     60 H8         34.0028   36.8955   24.5968 H           1 L04       0.0541
     61 H9         34.2097   34.3056   23.0278 H           1 L04       0.0315
     62 H10        33.9516   34.4917   24.7553 H           1 L04       0.0315
     63 H11        36.3270   36.0150   24.2028 H           1 L04       0.0430
     64 H12        36.4822   34.6036   23.1931 H           1 L04       0.0430
     65 H13        35.9608   32.2897   24.4566 H           1 L04       0.0559
     66 H14        36.6938   31.0117   26.3381 H           1 L04       0.0604
     67 H15        37.8355   34.5739   28.3079 H           1 L04       0.0604
     68 H16        37.1395   35.8375   26.4149 H           1 L04       0.0559
     69 H17        36.9418   29.2199   30.5138 H           1 L04       0.0604
     70 H18        31.9376   36.7274   22.5075 H           1 L04       0.0313
     71 H19        31.8891   35.2651   23.4511 H           1 L04       0.0313
     72 H20        34.7148   39.1596   20.7774 H           1 L04       0.0805
     73 H21        36.2971   41.1873   21.7679 H           1 L04       0.0315
     74 H22        35.3956   40.8058   23.2187 H           1 L04       0.0315
     75 H23        34.5956   42.7115   21.7704 H           1 L04       0.0298
     76 H24        33.1172   41.7314   23.4779 H           1 L04       0.0232
     77 H25        32.4549   40.5897   22.2794 H           1 L04       0.0232
     78 H26        32.2030   42.3372   22.1047 H           1 L04       0.0232
     79 H27        29.2696   38.7270   25.5560 H           1 L04       0.0267
     80 H28        28.7409   37.0640   25.8214 H           1 L04       0.0267
     81 H29        26.7426   38.0670   25.3025 H           1 L04       0.0285
     82 H30        27.1821   37.4868   23.7121 H           1 L04       0.0285
     83 H31        27.7154   40.3391   24.6819 H           1 L04       0.0523
     84 H32        26.2039   39.8583   23.9489 H           1 L04       0.0523
     85 H33        26.1169   39.4706   21.4008 H           1 L04       0.0699
     86 H34        27.4070   38.2167   21.4144 H           1 L04       0.0699
     87 H35        39.2958   38.1028   20.3835 H           1 L04       0.0502
     88 H36        41.5607   37.3745   20.6450 H           1 L04       0.0577
     89 H37        42.5022   37.0592   22.8543 H           1 L04       0.0487
     90 H38        41.1379   37.4614   24.8203 H           1 L04       0.0577
     91 H39        38.8483   38.1712   24.5812 H           1 L04       0.0502
     92 H40        30.1492   42.4692   20.5253 H           1 L04       0.0651
     93 H41        27.0622   39.2248   18.5935 H           1 L04       0.0569
     94 H42        28.3724   40.6866   17.1451 H           1 L04       0.0635
     95 H43        29.9235   42.2906   18.1120 H           1 L04       0.0572
     96 H44        40.2626   31.7742   30.9393 H           1 L04       0.0604
     97 H45        39.5465   33.0384   29.0306 H           1 L04       0.0606
     98 H46        34.3878   38.8304   23.5115 H           1 L04       0.1883
     99 H47        37.1649   38.8554   23.3059 H           1 L04       0.2257
@<TRIPOS>BOND
     1     1    23   1
     2     1     2   1
     3     2    18   1
     4     2     3   1
     5     3    49  ar
     6     3    48  ar
     7    18     7   1
     8     7    16   1
     9     7     8   1
    10     8     9   1
    11     9    10   1
    12    10    15  ar
    13    10    11  ar
    14    11    12  ar
    15    12    13  ar
    16    13    14  ar
    17    13     5   1
    18     5    43  ar
    19     5     6  ar
    20     6    17  ar
    21    17    41  ar
    22    41    42  ar
    23    42    43  ar
    24    14    15  ar
    25    16    50   2
    26    16    45  am
    27    45    19   1
    28    19    27   1
    29    19    20   1
    30    20    21   1
    31    21     4   1
    32    21    22   1
    33    27    51   2
    34    27    46  am
    35    46    30   1
    36    30    35  ar
    37    30    31  ar
    38    31    32  ar
    39    32    33  ar
    40    33    34  ar
    41    34    35  ar
    42    23    24   1
    43    24    25   1
    44    25    44   1
    45    44    28   1
    46    44    26  am
    47    26    47   2
    48    26    29   1
    49    29    37  ar
    50    29    36  ar
    51    36    28   1
    52    36    38  ar
    53    38    39  ar
    54    39    40  ar
    55    40    37  ar
    56    41    52   1
    57     1    53   1
    58     1    54   1
    59     2    55   1
    60     4    56   1
    61     4    57   1
    62     4    58   1
    63     6    59   1
    64     7    60   1
    65     8    61   1
    66     8    62   1
    67     9    63   1
    68     9    64   1
    69    11    65   1
    70    12    66   1
    71    14    67   1
    72    15    68   1
    73    17    69   1
    74    18    70   1
    75    18    71   1
    76    19    72   1
    77    20    73   1
    78    20    74   1
    79    21    75   1
    80    22    76   1
    81    22    77   1
    82    22    78   1
    83    23    79   1
    84    23    80   1
    85    24    81   1
    86    24    82   1
    87    25    83   1
    88    25    84   1
    89    28    85   1
    90    28    86   1
    91    31    87   1
    92    32    88   1
    93    33    89   1
    94    34    90   1
    95    35    91   1
    96    37    92   1
    97    38    93   1
    98    39    94   1
    99    40    95   1
   100    42    96   1
   101    43    97   1
   102    45    98   1
   103    46    99   1
@<TRIPOS>SUBSTRUCTURE
     1  L04      1

