@<TRIPOS>MOLECULE
1hfs_ligand_078
    99   103
SMALL
GAST_HUCK
****
This file was generated by PARSER (from files_GN.cpp)

@<TRIPOS>ATOM
      1 C1         29.2926   41.5921   28.4305 C.3         1 L04      -0.0384
      2 C2         29.9835   41.5952   27.0221 C.3         1 L04       0.0141
      3 C3         29.3402   42.5399   26.0702 C.2         1 L04       0.0380
      4 C4         32.6712   37.8361   21.7106 C.3         1 L04      -0.0625
      5 C5         37.4155   40.9520   21.2990 C.ar        1 L04      -0.0257
      6 C6         37.7275   39.7460   20.6146 C.ar        1 L04      -0.0571
      7 C7         30.5068   40.0339   24.9260 C.3         1 L04       0.0523
      8 C8         31.8471   40.8236   24.6118 C.3         1 L04      -0.0232
      9 C9         31.9729   41.3923   23.1580 C.3         1 L04      -0.0166
     10 C10        33.3751   41.4433   22.6470 C.ar        1 L04      -0.0424
     11 C11        33.6667   41.1856   21.2866 C.ar        1 L04      -0.0596
     12 C12        34.9883   41.0862   20.8327 C.ar        1 L04      -0.0610
     13 C13        36.0814   41.2102   21.7272 C.ar        1 L04      -0.0267
     14 C14        35.7953   41.5407   23.0788 C.ar        1 L04      -0.0610
     15 C15        34.4657   41.6760   23.5214 C.ar        1 L04      -0.0596
     16 C16        30.6150   38.6057   24.5688 C.2         1 L04       0.1816
     17 C17        39.0412   39.4740   20.1991 C.ar        1 L04      -0.0282
     18 C18        30.0383   40.1533   26.4168 C.3         1 L04      -0.0186
     19 C19        31.9434   36.5070   25.0450 C.3         1 L04       0.1369
     20 C20        32.1622   36.0543   23.5572 C.3         1 L04      -0.0096
     21 C21        33.2418   36.7244   22.6296 C.3         1 L04      -0.0425
     22 C22        34.5292   37.2213   23.3461 C.3         1 L04      -0.0625
     23 C23        28.7732   42.9624   28.9527 C.3         1 L04      -0.0495
     24 C24        29.8002   44.1368   28.8953 C.3         1 L04      -0.0323
     25 C25        29.1560   45.5068   28.5365 C.3         1 L04       0.0356
     26 C26        26.7902   46.1457   28.8256 C.2         1 L04       0.2046
     27 C27        33.1230   36.2342   25.8848 C.2         1 L04       0.2292
     28 C28        27.9652   45.7696   30.7559 C.3         1 L04       0.0703
     29 C29        25.8869   46.2795   29.8316 C.ar        1 L04       0.0535
     30 C30        34.7418   34.4941   26.5385 C.ar        1 L04       0.0663
     31 C31        34.9883   33.1178   26.3047 C.ar        1 L04      -0.0413
     32 C32        36.1966   32.5164   26.7001 C.ar        1 L04      -0.0755
     33 C33        37.1880   33.2778   27.3379 C.ar        1 L04      -0.0772
     34 C34        36.9535   34.6379   27.6068 C.ar        1 L04      -0.0755
     35 C35        35.7407   35.2379   27.2228 C.ar        1 L04      -0.0413
     36 C36        26.5571   46.0611   31.0322 C.ar        1 L04      -0.0003
     37 C37        24.5052   46.5550   29.8144 C.ar        1 L04      -0.0484
     38 C38        25.8719   46.1096   32.2603 C.ar        1 L04      -0.0524
     39 C39        24.4893   46.3913   32.2577 C.ar        1 L04      -0.0641
     40 C40        23.8088   46.6131   31.0407 C.ar        1 L04      -0.0630
     41 C41        40.0695   40.3970   20.4608 C.ar        1 L04       0.1322
     42 C42        39.7785   41.5897   21.1451 C.ar        1 L04      -0.0282
     43 C43        38.4673   41.8654   21.5639 C.ar        1 L04      -0.0571
     44 N1         27.9807   45.8200   29.3185 N.am        1 L04      -0.2613
     45 N18        31.5403   37.8853   25.1846 N.am        1 L04      -0.2649
     46 N29        33.5648   34.9851   26.0213 N.am        1 L04      -0.2320
     47 O1         26.5030   46.2532   27.6398 O.2         1 L04      -0.3882
     48 O4         30.0744   43.1456   25.1068 O.co2       1 L04      -0.5687
     49 O5         28.0209   42.8514   26.1786 O.co2       1 L04      -0.5687
     50 O17        29.8603   38.1046   23.7455 O.2         1 L04      -0.3966
     51 O28        33.7213   37.1633   26.4162 O.2         1 L04      -0.3823
     52 F1         41.2889   40.1457   20.0685 F           1 L04      -0.1835
     53 H1         28.4325   40.9108   28.4039 H           1 L04       0.0286
     54 H2         29.9959   41.1950   29.1687 H           1 L04       0.0286
     55 H3         31.0145   41.9392   27.1618 H           1 L04       0.0467
     56 H4         33.4191   38.1388   20.9723 H           1 L04       0.0232
     57 H5         32.3951   38.7082   22.2937 H           1 L04       0.0232
     58 H6         31.7910   37.4808   21.1690 H           1 L04       0.0232
     59 H7         37.0028   39.0508   20.4267 H           1 L04       0.0606
     60 H8         29.7056   40.4603   24.3093 H           1 L04       0.0541
     61 H9         32.7220   40.1829   24.8139 H           1 L04       0.0315
     62 H10        31.9378   41.6655   25.3049 H           1 L04       0.0315
     63 H11        31.5727   42.4065   23.1403 H           1 L04       0.0430
     64 H12        31.3631   40.7904   22.4751 H           1 L04       0.0430
     65 H13        32.9045   41.0437   20.6127 H           1 L04       0.0559
     66 H14        35.1573   40.8941   19.8348 H           1 L04       0.0604
     67 H15        36.5530   41.6413   23.7604 H           1 L04       0.0604
     68 H16        34.3013   41.8860   24.5087 H           1 L04       0.0559
     69 H17        39.2473   38.6016   19.7104 H           1 L04       0.0604
     70 H18        29.0446   39.7076   26.5023 H           1 L04       0.0313
     71 H19        30.7034   39.5544   27.0353 H           1 L04       0.0313
     72 H20        31.1287   35.9018   25.4548 H           1 L04       0.0805
     73 H21        31.1936   36.1278   23.0587 H           1 L04       0.0315
     74 H22        32.3828   34.9826   23.5665 H           1 L04       0.0315
     75 H23        33.5770   35.9395   21.9412 H           1 L04       0.0298
     76 H24        34.9625   36.4197   23.9472 H           1 L04       0.0232
     77 H25        34.3075   38.0759   23.9874 H           1 L04       0.0232
     78 H26        35.2757   37.5314   22.6092 H           1 L04       0.0232
     79 H27        28.4815   42.8438   30.0022 H           1 L04       0.0267
     80 H28        27.8657   43.2368   28.4064 H           1 L04       0.0267
     81 H29        30.5729   43.9266   28.1504 H           1 L04       0.0285
     82 H30        30.3049   44.2151   29.8651 H           1 L04       0.0285
     83 H31        28.9165   45.4861   27.4676 H           1 L04       0.0523
     84 H32        29.8975   46.3015   28.6736 H           1 L04       0.0523
     85 H33        28.6197   46.5317   31.1889 H           1 L04       0.0699
     86 H34        28.2297   44.7789   31.1332 H           1 L04       0.0699
     87 H35        34.2893   32.5465   25.8216 H           1 L04       0.0502
     88 H36        36.3605   31.5257   26.5061 H           1 L04       0.0577
     89 H37        38.0717   32.8501   27.6059 H           1 L04       0.0487
     90 H38        37.6725   35.1987   28.0737 H           1 L04       0.0577
     91 H39        35.6052   36.2243   27.4472 H           1 L04       0.0502
     92 H40        24.0127   46.7092   28.9323 H           1 L04       0.0651
     93 H41        26.3657   45.9330   33.1369 H           1 L04       0.0569
     94 H42        23.9758   46.4243   33.1405 H           1 L04       0.0635
     95 H43        22.8052   46.8104   31.0453 H           1 L04       0.0572
     96 H44        40.5235   42.2625   21.3363 H           1 L04       0.0604
     97 H45        38.2770   42.7427   22.0525 H           1 L04       0.0606
     98 H46        32.0458   38.3742   25.8519 H           1 L04       0.1883
     99 H47        33.0075   34.3089   25.6036 H           1 L04       0.2257
@<TRIPOS>BOND
     1     1    23   1
     2     1     2   1
     3     2    18   1
     4     2     3   1
     5     3    49  ar
     6     3    48  ar
     7    18     7   1
     8     7    16   1
     9     7     8   1
    10     8     9   1
    11     9    10   1
    12    10    15  ar
    13    10    11  ar
    14    11    12  ar
    15    12    13  ar
    16    13    14  ar
    17    13     5   1
    18     5    43  ar
    19     5     6  ar
    20     6    17  ar
    21    17    41  ar
    22    41    42  ar
    23    42    43  ar
    24    14    15  ar
    25    16    50   2
    26    16    45  am
    27    45    19   1
    28    19    27   1
    29    19    20   1
    30    20    21   1
    31    21     4   1
    32    21    22   1
    33    27    51   2
    34    27    46  am
    35    46    30   1
    36    30    35  ar
    37    30    31  ar
    38    31    32  ar
    39    32    33  ar
    40    33    34  ar
    41    34    35  ar
    42    23    24   1
    43    24    25   1
    44    25    44   1
    45    44    28   1
    46    44    26  am
    47    26    47   2
    48    26    29   1
    49    29    37  ar
    50    29    36  ar
    51    36    28   1
    52    36    38  ar
    53    38    39  ar
    54    39    40  ar
    55    40    37  ar
    56    41    52   1
    57     1    53   1
    58     1    54   1
    59     2    55   1
    60     4    56   1
    61     4    57   1
    62     4    58   1
    63     6    59   1
    64     7    60   1
    65     8    61   1
    66     8    62   1
    67     9    63   1
    68     9    64   1
    69    11    65   1
    70    12    66   1
    71    14    67   1
    72    15    68   1
    73    17    69   1
    74    18    70   1
    75    18    71   1
    76    19    72   1
    77    20    73   1
    78    20    74   1
    79    21    75   1
    80    22    76   1
    81    22    77   1
    82    22    78   1
    83    23    79   1
    84    23    80   1
    85    24    81   1
    86    24    82   1
    87    25    83   1
    88    25    84   1
    89    28    85   1
    90    28    86   1
    91    31    87   1
    92    32    88   1
    93    33    89   1
    94    34    90   1
    95    35    91   1
    96    37    92   1
    97    38    93   1
    98    39    94   1
    99    40    95   1
   100    42    96   1
   101    43    97   1
   102    45    98   1
   103    46    99   1
@<TRIPOS>SUBSTRUCTURE
     1  L04      1

