@<TRIPOS>MOLECULE
1hfs_ligand_026
    99   103
SMALL
GAST_HUCK
****
This file was generated by PARSER (from files_GN.cpp)

@<TRIPOS>ATOM
      1 C1         31.2321   36.7229   23.9538 C.3         1 L04      -0.0384
      2 C2         31.7921   38.1859   23.9631 C.3         1 L04       0.0141
      3 C3         32.7422   38.4136   25.0817 C.2         1 L04       0.0380
      4 C4         25.1767   37.8245   20.6415 C.3         1 L04      -0.0625
      5 C5         38.1455   40.0893   21.2939 C.ar        1 L04      -0.0257
      6 C6         38.8677   39.4996   20.2286 C.ar        1 L04      -0.0571
      7 C7         30.4301   40.1220   22.6569 C.3         1 L04       0.0523
      8 C8         31.6807   40.9761   22.2158 C.3         1 L04      -0.0232
      9 C9         32.4379   40.6344   20.8812 C.3         1 L04      -0.0166
     10 C10        33.9111   40.4864   21.0418 C.ar        1 L04      -0.0424
     11 C11        34.5237   39.2139   20.9490 C.ar        1 L04      -0.0596
     12 C12        35.9197   39.0797   21.0240 C.ar        1 L04      -0.0610
     13 C13        36.7341   40.2165   21.2237 C.ar        1 L04      -0.0267
     14 C14        36.1207   41.4829   21.3613 C.ar        1 L04      -0.0610
     15 C15        34.7259   41.6179   21.2606 C.ar        1 L04      -0.0596
     16 C16        29.8080   39.3620   21.5700 C.2         1 L04       0.1816
     17 C17        40.2654   39.3544   20.3007 C.ar        1 L04      -0.0282
     18 C18        30.6484   39.2734   23.9618 C.3         1 L04      -0.0186
     19 C19        28.0904   39.2720   19.7913 C.3         1 L04       0.1369
     20 C20        26.6182   39.7909   19.7363 C.3         1 L04      -0.0096
     21 C21        25.6343   39.2938   20.8517 C.3         1 L04      -0.0425
     22 C22        26.1373   39.4996   22.3078 C.3         1 L04      -0.0625
     23 C23        32.2299   35.5264   24.0486 C.3         1 L04      -0.0495
     24 C24        33.4946   35.5584   23.1349 C.3         1 L04      -0.0323
     25 C25        34.8126   36.0384   23.8134 C.3         1 L04       0.0356
     26 C26        35.7281   33.9029   24.6106 C.2         1 L04       0.2046
     27 C27        28.8477   39.5635   18.5745 C.2         1 L04       0.2292
     28 C28        35.4405   35.4996   26.2223 C.3         1 L04       0.0703
     29 C29        36.1261   33.3231   25.7725 C.ar        1 L04       0.0535
     30 C30        30.2137   38.5720   16.7868 C.ar        1 L04       0.0663
     31 C31        30.4101   39.6626   15.9022 C.ar        1 L04      -0.0413
     32 C32        31.2988   39.5601   14.8157 C.ar        1 L04      -0.0755
     33 C33        31.9996   38.3631   14.5874 C.ar        1 L04      -0.0772
     34 C34        31.8016   37.2645   15.4408 C.ar        1 L04      -0.0755
     35 C35        30.9104   37.3682   16.5261 C.ar        1 L04      -0.0413
     36 C36        35.9731   34.2585   26.7907 C.ar        1 L04      -0.0003
     37 C37        36.6104   32.0279   26.0442 C.ar        1 L04      -0.0484
     38 C38        36.3080   33.9319   28.1212 C.ar        1 L04      -0.0524
     39 C39        36.7752   32.6309   28.4106 C.ar        1 L04      -0.0641
     40 C40        36.9202   31.6798   27.3762 C.ar        1 L04      -0.0630
     41 C41        40.9610   39.7934   21.4434 C.ar        1 L04       0.1322
     42 C42        40.2557   40.3865   22.5085 C.ar        1 L04      -0.0282
     43 C43        38.8579   40.5345   22.4333 C.ar        1 L04      -0.0571
     44 N1         35.3065   35.1422   24.8343 N.am        1 L04      -0.2613
     45 N18        28.7801   39.8730   20.9005 N.am        1 L04      -0.2649
     46 N29        29.3810   38.5637   17.8754 N.am        1 L04      -0.2320
     47 O1         35.7843   33.3441   23.5265 O.2         1 L04      -0.3882
     48 O4         32.7067   37.6583   26.1997 O.co2       1 L04      -0.5687
     49 O5         33.4872   39.5386   25.1291 O.co2       1 L04      -0.5687
     50 O17        30.2881   38.2944   21.2221 O.2         1 L04      -0.3966
     51 O28        29.0591   40.7383   18.2965 O.2         1 L04      -0.3823
     52 F1         42.2575   39.6513   21.5187 F           1 L04      -0.1835
     53 H1         30.5267   36.6183   24.7852 H           1 L04       0.0286
     54 H2         30.6517   36.5805   23.0431 H           1 L04       0.0286
     55 H3         32.3745   38.3012   23.0474 H           1 L04       0.0467
     56 H4         24.4245   37.5510   21.3846 H           1 L04       0.0232
     57 H5         26.0158   37.1342   20.7351 H           1 L04       0.0232
     58 H6         24.7324   37.7023   19.6518 H           1 L04       0.0232
     59 H7         38.3843   39.1810   19.3860 H           1 L04       0.0606
     60 H8         29.6829   40.8656   22.9721 H           1 L04       0.0541
     61 H9         32.3910   40.9838   23.0462 H           1 L04       0.0315
     62 H10        31.3635   42.0218   22.1277 H           1 L04       0.0315
     63 H11        32.2530   41.4263   20.1477 H           1 L04       0.0430
     64 H12        32.0447   39.7186   20.4311 H           1 L04       0.0430
     65 H13        33.9604   38.3702   20.8102 H           1 L04       0.0559
     66 H14        36.3364   38.1475   20.9372 H           1 L04       0.0604
     67 H15        36.6866   42.3213   21.5085 H           1 L04       0.0604
     68 H16        34.3034   42.5449   21.3329 H           1 L04       0.0559
     69 H17        40.7747   38.9268   19.5242 H           1 L04       0.0604
     70 H18        30.8180   39.9923   24.7719 H           1 L04       0.0313
     71 H19        29.6949   38.8020   24.2144 H           1 L04       0.0313
     72 H20        28.0365   38.1893   19.9381 H           1 L04       0.0805
     73 H21        26.1939   39.4986   18.7734 H           1 L04       0.0315
     74 H22        26.6308   40.8864   19.7452 H           1 L04       0.0315
     75 H23        24.7314   39.9053   20.7504 H           1 L04       0.0298
     76 H24        26.5313   40.5064   22.4435 H           1 L04       0.0232
     77 H25        26.9210   38.7810   22.5559 H           1 L04       0.0232
     78 H26        25.3136   39.3608   23.0123 H           1 L04       0.0232
     79 H27        31.6578   34.6311   23.7815 H           1 L04       0.0267
     80 H28        32.5273   35.3855   25.0879 H           1 L04       0.0267
     81 H29        33.3017   36.1900   22.2679 H           1 L04       0.0285
     82 H30        33.6697   34.5520   22.7472 H           1 L04       0.0285
     83 H31        34.6496   37.0387   24.2315 H           1 L04       0.0523
     84 H32        35.5828   36.1374   23.0410 H           1 L04       0.0523
     85 H33        34.4809   35.7491   26.6781 H           1 L04       0.0699
     86 H34        36.1455   36.3196   26.3560 H           1 L04       0.0699
     87 H35        29.8942   40.5347   16.0180 H           1 L04       0.0502
     88 H36        31.4261   40.3537   14.1826 H           1 L04       0.0577
     89 H37        32.6367   38.2877   13.7922 H           1 L04       0.0487
     90 H38        32.3025   36.3901   15.2715 H           1 L04       0.0577
     91 H39        30.7791   36.5538   17.1319 H           1 L04       0.0502
     92 H40        36.7246   31.3450   25.2921 H           1 L04       0.0651
     93 H41        36.2080   34.6254   28.8683 H           1 L04       0.0569
     94 H42        37.0076   32.3750   29.3729 H           1 L04       0.0635
     95 H43        37.2510   30.7350   27.5941 H           1 L04       0.0572
     96 H44        40.7572   40.7037   23.3413 H           1 L04       0.0604
     97 H45        38.3619   40.9541   23.2243 H           1 L04       0.0606
     98 H46        28.4973   40.7654   21.1511 H           1 L04       0.1883
     99 H47        29.1848   37.6769   18.2184 H           1 L04       0.2257
@<TRIPOS>BOND
     1     1    23   1
     2     1     2   1
     3     2    18   1
     4     2     3   1
     5     3    49  ar
     6     3    48  ar
     7    18     7   1
     8     7    16   1
     9     7     8   1
    10     8     9   1
    11     9    10   1
    12    10    15  ar
    13    10    11  ar
    14    11    12  ar
    15    12    13  ar
    16    13    14  ar
    17    13     5   1
    18     5    43  ar
    19     5     6  ar
    20     6    17  ar
    21    17    41  ar
    22    41    42  ar
    23    42    43  ar
    24    14    15  ar
    25    16    50   2
    26    16    45  am
    27    45    19   1
    28    19    27   1
    29    19    20   1
    30    20    21   1
    31    21     4   1
    32    21    22   1
    33    27    51   2
    34    27    46  am
    35    46    30   1
    36    30    35  ar
    37    30    31  ar
    38    31    32  ar
    39    32    33  ar
    40    33    34  ar
    41    34    35  ar
    42    23    24   1
    43    24    25   1
    44    25    44   1
    45    44    28   1
    46    44    26  am
    47    26    47   2
    48    26    29   1
    49    29    37  ar
    50    29    36  ar
    51    36    28   1
    52    36    38  ar
    53    38    39  ar
    54    39    40  ar
    55    40    37  ar
    56    41    52   1
    57     1    53   1
    58     1    54   1
    59     2    55   1
    60     4    56   1
    61     4    57   1
    62     4    58   1
    63     6    59   1
    64     7    60   1
    65     8    61   1
    66     8    62   1
    67     9    63   1
    68     9    64   1
    69    11    65   1
    70    12    66   1
    71    14    67   1
    72    15    68   1
    73    17    69   1
    74    18    70   1
    75    18    71   1
    76    19    72   1
    77    20    73   1
    78    20    74   1
    79    21    75   1
    80    22    76   1
    81    22    77   1
    82    22    78   1
    83    23    79   1
    84    23    80   1
    85    24    81   1
    86    24    82   1
    87    25    83   1
    88    25    84   1
    89    28    85   1
    90    28    86   1
    91    31    87   1
    92    32    88   1
    93    33    89   1
    94    34    90   1
    95    35    91   1
    96    37    92   1
    97    38    93   1
    98    39    94   1
    99    40    95   1
   100    42    96   1
   101    43    97   1
   102    45    98   1
   103    46    99   1
@<TRIPOS>SUBSTRUCTURE
     1  L04      1

