@<TRIPOS>MOLECULE
1hfs_ligand_080
    99   103
SMALL
GAST_HUCK
****
This file was generated by PARSER (from files_GN.cpp)

@<TRIPOS>ATOM
      1 C1         34.4787   36.8450   23.7356 C.3         1 L04      -0.0384
      2 C2         33.5586   37.9487   24.3593 C.3         1 L04       0.0141
      3 C3         32.9023   37.4977   25.6060 C.2         1 L04       0.0380
      4 C4         28.2705   43.3600   27.9588 C.3         1 L04      -0.0625
      5 C5         38.5193   40.1441   21.9292 C.ar        1 L04      -0.0257
      6 C6         39.5199   40.9908   21.3966 C.ar        1 L04      -0.0571
      7 C7         32.6125   40.2138   23.4228 C.3         1 L04       0.0523
      8 C8         32.1145   40.9648   22.1420 C.3         1 L04      -0.0232
      9 C9         32.8946   40.6852   20.8137 C.3         1 L04      -0.0166
     10 C10        34.3748   40.5732   20.9720 C.ar        1 L04      -0.0424
     11 C11        35.0243   39.3225   20.8592 C.ar        1 L04      -0.0596
     12 C12        36.3917   39.1886   21.1546 C.ar        1 L04      -0.0610
     13 C13        37.1551   40.3060   21.5618 C.ar        1 L04      -0.0267
     14 C14        36.5228   41.5718   21.6104 C.ar        1 L04      -0.0610
     15 C15        35.1534   41.7042   21.3071 C.ar        1 L04      -0.0596
     16 C16        31.9338   40.6916   24.6363 C.2         1 L04       0.1816
     17 C17        40.8732   40.8101   21.7401 C.ar        1 L04      -0.0282
     18 C18        32.5924   38.6500   23.3264 C.3         1 L04      -0.0186
     19 C19        29.8589   41.0891   25.9066 C.3         1 L04       0.1369
     20 C20        29.7402   42.6586   25.9117 C.3         1 L04      -0.0096
     21 C21        29.6685   43.4015   27.2824 C.3         1 L04      -0.0425
     22 C22        30.7814   42.9677   28.2799 C.3         1 L04      -0.0625
     23 C23        33.8428   35.4765   23.3451 C.3         1 L04      -0.0495
     24 C24        34.7289   34.2403   23.7146 C.3         1 L04      -0.0323
     25 C25        34.3987   33.5727   25.0955 C.3         1 L04       0.0356
     26 C26        36.0783   34.3774   26.7037 C.2         1 L04       0.2046
     27 C27        28.5533   40.4233   25.9309 C.2         1 L04       0.2292
     28 C28        36.0553   32.1143   26.3547 C.3         1 L04       0.0703
     29 C29        36.9800   33.8639   27.5789 C.ar        1 L04       0.0535
     30 C30        26.9325   39.2555   27.3534 C.ar        1 L04       0.0663
     31 C31        26.0075   38.7496   26.4065 C.ar        1 L04      -0.0413
     32 C32        24.8074   38.1449   26.8292 C.ar        1 L04      -0.0755
     33 C33        24.5182   38.0279   28.1987 C.ar        1 L04      -0.0772
     34 C34        25.4268   38.5206   29.1487 C.ar        1 L04      -0.0755
     35 C35        26.6248   39.1272   28.7271 C.ar        1 L04      -0.0413
     36 C36        37.0072   32.4857   27.4035 C.ar        1 L04      -0.0003
     37 C37        37.7627   34.4924   28.5644 C.ar        1 L04      -0.0484
     38 C38        37.8369   31.6802   28.2074 C.ar        1 L04      -0.0524
     39 C39        38.6487   32.2979   29.1861 C.ar        1 L04      -0.0641
     40 C40        38.6088   33.6989   29.3663 C.ar        1 L04      -0.0630
     41 C41        41.2459   39.7848   22.6276 C.ar        1 L04       0.1322
     42 C42        40.2605   38.9423   23.1777 C.ar        1 L04      -0.0282
     43 C43        38.9087   39.1219   22.8286 C.ar        1 L04      -0.0571
     44 N1         35.5171   33.4022   25.9944 N.am        1 L04      -0.2613
     45 N18        30.6109   40.6317   24.7586 N.am        1 L04      -0.2649
     46 N29        28.1300   39.8477   27.0558 N.am        1 L04      -0.2320
     47 O1         35.7847   35.5651   26.6782 O.2         1 L04      -0.3882
     48 O4         33.5386   36.6247   26.4276 O.co2       1 L04      -0.5687
     49 O5         31.6927   37.9529   26.0293 O.co2       1 L04      -0.5687
     50 O17        32.6263   41.1316   25.5461 O.2         1 L04      -0.3966
     51 O28        27.8409   40.4961   24.9344 O.2         1 L04      -0.3823
     52 F1         42.4993   39.6181   22.9464 F           1 L04      -0.1835
     53 H1         34.9670   37.2564   22.8516 H           1 L04       0.0286
     54 H2         35.2870   36.6681   24.4436 H           1 L04       0.0286
     55 H3         34.2801   38.7057   24.6966 H           1 L04       0.0467
     56 H4         28.2369   44.0624   28.7933 H           1 L04       0.0232
     57 H5         28.0502   42.3651   28.3494 H           1 L04       0.0232
     58 H6         27.4908   43.6386   27.2467 H           1 L04       0.0232
     59 H7         39.2753   41.7345   20.7389 H           1 L04       0.0606
     60 H8         33.6622   40.5015   23.5139 H           1 L04       0.0541
     61 H9         32.1729   42.0428   22.3276 H           1 L04       0.0315
     62 H10        31.0601   40.7335   21.9706 H           1 L04       0.0315
     63 H11        32.6774   41.4861   20.1001 H           1 L04       0.0430
     64 H12        32.4874   39.7686   20.3744 H           1 L04       0.0430
     65 H13        34.4981   38.4833   20.6165 H           1 L04       0.0559
     66 H14        36.8193   38.2602   21.0896 H           1 L04       0.0604
     67 H15        37.0445   42.3987   21.9094 H           1 L04       0.0604
     68 H16        34.7115   42.6230   21.4011 H           1 L04       0.0559
     69 H17        41.5844   41.4242   21.3362 H           1 L04       0.0604
     70 H18        31.5687   38.2769   23.4289 H           1 L04       0.0313
     71 H19        32.9000   38.3673   22.3227 H           1 L04       0.0313
     72 H20        30.4228   40.7870   26.7983 H           1 L04       0.0805
     73 H21        28.8763   42.9547   25.3030 H           1 L04       0.0315
     74 H22        30.6074   43.0712   25.3913 H           1 L04       0.0315
     75 H23        29.8573   44.4562   27.0581 H           1 L04       0.0298
     76 H24        31.7533   42.9447   27.7791 H           1 L04       0.0232
     77 H25        30.5736   41.9739   28.6913 H           1 L04       0.0232
     78 H26        30.8393   43.6796   29.1078 H           1 L04       0.0232
     79 H27        33.6908   35.4769   22.2621 H           1 L04       0.0267
     80 H28        32.8540   35.3641   23.7928 H           1 L04       0.0267
     81 H29        35.7872   34.5184   23.6791 H           1 L04       0.0285
     82 H30        34.5941   33.4825   22.9355 H           1 L04       0.0285
     83 H31        33.9569   32.5918   24.8921 H           1 L04       0.0523
     84 H32        33.6254   34.1432   25.6220 H           1 L04       0.0523
     85 H33        36.5636   31.6466   25.5100 H           1 L04       0.0699
     86 H34        35.2833   31.4546   26.7572 H           1 L04       0.0699
     87 H35        26.2077   38.7870   25.4075 H           1 L04       0.0502
     88 H36        24.1454   37.7780   26.1390 H           1 L04       0.0577
     89 H37        23.6462   37.5869   28.5049 H           1 L04       0.0487
     90 H38        25.2198   38.4361   30.1470 H           1 L04       0.0577
     91 H39        27.2728   39.4800   29.4358 H           1 L04       0.0502
     92 H40        37.7146   35.5035   28.7043 H           1 L04       0.0651
     93 H41        37.8476   30.6632   28.0902 H           1 L04       0.0569
     94 H42        39.2592   31.7271   29.7745 H           1 L04       0.0635
     95 H43        39.1871   34.1366   30.0827 H           1 L04       0.0572
     96 H44        40.5238   38.2002   23.8307 H           1 L04       0.0604
     97 H45        38.2099   38.5024   23.2475 H           1 L04       0.0606
     98 H46        30.1105   40.2192   24.0307 H           1 L04       0.1883
     99 H47        28.7309   39.9401   27.8139 H           1 L04       0.2257
@<TRIPOS>BOND
     1     1    23   1
     2     1     2   1
     3     2    18   1
     4     2     3   1
     5     3    49  ar
     6     3    48  ar
     7    18     7   1
     8     7    16   1
     9     7     8   1
    10     8     9   1
    11     9    10   1
    12    10    15  ar
    13    10    11  ar
    14    11    12  ar
    15    12    13  ar
    16    13    14  ar
    17    13     5   1
    18     5    43  ar
    19     5     6  ar
    20     6    17  ar
    21    17    41  ar
    22    41    42  ar
    23    42    43  ar
    24    14    15  ar
    25    16    50   2
    26    16    45  am
    27    45    19   1
    28    19    27   1
    29    19    20   1
    30    20    21   1
    31    21     4   1
    32    21    22   1
    33    27    51   2
    34    27    46  am
    35    46    30   1
    36    30    35  ar
    37    30    31  ar
    38    31    32  ar
    39    32    33  ar
    40    33    34  ar
    41    34    35  ar
    42    23    24   1
    43    24    25   1
    44    25    44   1
    45    44    28   1
    46    44    26  am
    47    26    47   2
    48    26    29   1
    49    29    37  ar
    50    29    36  ar
    51    36    28   1
    52    36    38  ar
    53    38    39  ar
    54    39    40  ar
    55    40    37  ar
    56    41    52   1
    57     1    53   1
    58     1    54   1
    59     2    55   1
    60     4    56   1
    61     4    57   1
    62     4    58   1
    63     6    59   1
    64     7    60   1
    65     8    61   1
    66     8    62   1
    67     9    63   1
    68     9    64   1
    69    11    65   1
    70    12    66   1
    71    14    67   1
    72    15    68   1
    73    17    69   1
    74    18    70   1
    75    18    71   1
    76    19    72   1
    77    20    73   1
    78    20    74   1
    79    21    75   1
    80    22    76   1
    81    22    77   1
    82    22    78   1
    83    23    79   1
    84    23    80   1
    85    24    81   1
    86    24    82   1
    87    25    83   1
    88    25    84   1
    89    28    85   1
    90    28    86   1
    91    31    87   1
    92    32    88   1
    93    33    89   1
    94    34    90   1
    95    35    91   1
    96    37    92   1
    97    38    93   1
    98    39    94   1
    99    40    95   1
   100    42    96   1
   101    43    97   1
   102    45    98   1
   103    46    99   1
@<TRIPOS>SUBSTRUCTURE
     1  L04      1

