@<TRIPOS>MOLECULE
1hfs_ligand_037
    99   103
SMALL
GAST_HUCK
****
This file was generated by PARSER (from files_GN.cpp)

@<TRIPOS>ATOM
      1 C1         34.0555   35.8317   23.8836 C.3         1 L04      -0.0384
      2 C2         33.1220   37.0813   24.1198 C.3         1 L04       0.0141
      3 C3         32.6671   37.1110   25.5324 C.2         1 L04       0.0380
      4 C4         25.0460   38.0382   20.1510 C.3         1 L04      -0.0625
      5 C5         30.0317   43.1091   27.4593 C.ar        1 L04      -0.0257
      6 C6         29.7518   44.4968   27.5533 C.ar        1 L04      -0.0571
      7 C7         30.9353   38.3484   23.2478 C.3         1 L04       0.0523
      8 C8         31.2026   39.4638   22.1561 C.3         1 L04      -0.0232
      9 C9         32.0545   40.6752   22.6375 C.3         1 L04      -0.0166
     10 C10        31.5449   41.3535   23.8661 C.ar        1 L04      -0.0424
     11 C11        32.3351   41.4087   25.0355 C.ar        1 L04      -0.0596
     12 C12        31.8501   42.0128   26.2084 C.ar        1 L04      -0.0610
     13 C13        30.5450   42.5559   26.2542 C.ar        1 L04      -0.0267
     14 C14        29.7590   42.5158   25.0814 C.ar        1 L04      -0.0610
     15 C15        30.2537   41.9292   23.8996 C.ar        1 L04      -0.0596
     16 C16        29.4974   38.0162   23.3037 C.2         1 L04       0.1816
     17 C17        29.2082   45.0397   28.7302 C.ar        1 L04      -0.0282
     18 C18        31.9193   37.1166   23.1114 C.3         1 L04      -0.0186
     19 C19        27.1877   38.9523   23.4137 C.3         1 L04       0.1369
     20 C20        26.5963   38.1621   22.1867 C.3         1 L04      -0.0096
     21 C21        25.3498   38.7894   21.4821 C.3         1 L04      -0.0425
     22 C22        24.0938   38.8325   22.3974 C.3         1 L04      -0.0625
     23 C23        35.3607   36.2025   23.1239 C.3         1 L04      -0.0495
     24 C24        36.4039   35.0447   23.0516 C.3         1 L04      -0.0323
     25 C25        37.3868   34.9549   24.2535 C.3         1 L04       0.0356
     26 C26        36.9147   34.6802   26.6674 C.2         1 L04       0.2046
     27 C27        26.7493   38.4913   24.7307 C.2         1 L04       0.2292
     28 C28        36.7017   32.7949   25.3782 C.3         1 L04       0.0703
     29 C29        36.7523   33.6514   27.5475 C.ar        1 L04       0.0535
     30 C30        25.3416   39.0372   26.6752 C.ar        1 L04       0.0663
     31 C31        25.8020   38.1226   27.6594 C.ar        1 L04      -0.0413
     32 C32        25.1413   38.0058   28.8968 C.ar        1 L04      -0.0755
     33 C33        24.0183   38.7996   29.1747 C.ar        1 L04      -0.0772
     34 C34        23.5664   39.7311   28.2237 C.ar        1 L04      -0.0755
     35 C35        24.2291   39.8495   26.9885 C.ar        1 L04      -0.0413
     36 C36        36.6430   32.4813   26.8060 C.ar        1 L04      -0.0003
     37 C37        36.7565   33.6177   28.9556 C.ar        1 L04      -0.0484
     38 C38        36.5570   31.2312   27.4465 C.ar        1 L04      -0.0524
     39 C39        36.5744   31.1801   28.8534 C.ar        1 L04      -0.0641
     40 C40        36.6746   32.3707   29.6051 C.ar        1 L04      -0.0630
     41 C41        28.9252   44.2066   29.8291 C.ar        1 L04       0.1322
     42 C42        29.1971   42.8270   29.7486 C.ar        1 L04      -0.0282
     43 C43        29.7568   42.2865   28.5783 C.ar        1 L04      -0.0571
     44 N1         36.9271   34.2197   25.4192 N.am        1 L04      -0.2613
     45 N18        28.6306   39.0162   23.3986 N.am        1 L04      -0.2649
     46 N29        25.8973   39.2305   25.4411 N.am        1 L04      -0.2320
     47 O1         37.1264   35.8331   27.0106 O.2         1 L04      -0.3882
     48 O4         33.5819   37.0164   26.5210 O.co2       1 L04      -0.5687
     49 O5         31.3664   36.9464   25.8726 O.co2       1 L04      -0.5687
     50 O17        29.1212   36.8457   23.3376 O.2         1 L04      -0.3966
     51 O28        27.1988   37.4212   25.1433 O.2         1 L04      -0.3823
     52 F1         28.4068   44.7098   30.9151 F           1 L04      -0.1835
     53 H1         34.3386   35.3481   24.8276 H           1 L04       0.0286
     54 H2         33.5274   35.0702   23.2888 H           1 L04       0.0286
     55 H3         33.6875   38.0006   23.9642 H           1 L04       0.0467
     56 H4         24.2232   38.5318   19.6294 H           1 L04       0.0232
     57 H5         24.7746   36.9989   20.3580 H           1 L04       0.0232
     58 H6         25.9232   38.0502   19.4950 H           1 L04       0.0232
     59 H7         29.9521   45.1164   26.7652 H           1 L04       0.0606
     60 H8         31.1198   38.7794   24.2318 H           1 L04       0.0541
     61 H9         30.2703   39.8814   21.7630 H           1 L04       0.0315
     62 H10        31.7081   39.0329   21.2844 H           1 L04       0.0315
     63 H11        32.0934   41.4205   21.8364 H           1 L04       0.0430
     64 H12        33.0822   40.3322   22.7836 H           1 L04       0.0430
     65 H13        33.2728   40.9945   25.0512 H           1 L04       0.0559
     66 H14        32.4618   42.0739   27.0230 H           1 L04       0.0604
     67 H15        28.8080   42.9031   25.0787 H           1 L04       0.0604
     68 H16        29.6664   41.9272   23.0642 H           1 L04       0.0559
     69 H17        29.0146   46.0430   28.7802 H           1 L04       0.0604
     70 H18        31.3794   36.1687   23.2435 H           1 L04       0.0313
     71 H19        32.3287   37.0818   22.0976 H           1 L04       0.0313
     72 H20        26.8920   39.9997   23.2857 H           1 L04       0.0805
     73 H21        26.3680   37.1322   22.4878 H           1 L04       0.0315
     74 H22        27.3751   38.0997   21.4172 H           1 L04       0.0315
     75 H23        25.6097   39.8239   21.2178 H           1 L04       0.0298
     76 H24        24.2762   39.4718   23.2672 H           1 L04       0.0232
     77 H25        23.8398   37.8243   22.7431 H           1 L04       0.0232
     78 H26        23.2500   39.2523   21.8395 H           1 L04       0.0232
     79 H27        35.8167   37.0854   23.5885 H           1 L04       0.0267
     80 H28        35.0803   36.4744   22.0938 H           1 L04       0.0267
     81 H29        37.0189   35.2257   22.1575 H           1 L04       0.0285
     82 H30        35.9077   34.0837   22.9014 H           1 L04       0.0285
     83 H31        37.6848   35.9745   24.5205 H           1 L04       0.0523
     84 H32        38.3014   34.4692   23.8883 H           1 L04       0.0523
     85 H33        37.5318   32.2571   24.9097 H           1 L04       0.0699
     86 H34        35.7556   32.5532   24.8866 H           1 L04       0.0699
     87 H35        26.6258   37.5516   27.5004 H           1 L04       0.0502
     88 H36        25.4804   37.3404   29.5953 H           1 L04       0.0577
     89 H37        23.5328   38.7112   30.0716 H           1 L04       0.0487
     90 H38        22.7510   40.3154   28.4249 H           1 L04       0.0577
     91 H39        23.8829   40.5330   26.3070 H           1 L04       0.0502
     92 H40        36.8366   34.4801   29.4989 H           1 L04       0.0651
     93 H41        36.5035   30.3729   26.9013 H           1 L04       0.0569
     94 H42        36.5370   30.2799   29.3327 H           1 L04       0.0635
     95 H43        36.6943   32.3254   30.6240 H           1 L04       0.0572
     96 H44        28.9816   42.2177   30.5407 H           1 L04       0.0604
     97 H45        29.9361   41.2771   28.5391 H           1 L04       0.0606
     98 H46        29.0117   39.9137   23.3874 H           1 L04       0.1883
     99 H47        25.5796   40.0259   24.9798 H           1 L04       0.2257
@<TRIPOS>BOND
     1     1    23   1
     2     1     2   1
     3     2    18   1
     4     2     3   1
     5     3    49  ar
     6     3    48  ar
     7    18     7   1
     8     7    16   1
     9     7     8   1
    10     8     9   1
    11     9    10   1
    12    10    15  ar
    13    10    11  ar
    14    11    12  ar
    15    12    13  ar
    16    13    14  ar
    17    13     5   1
    18     5    43  ar
    19     5     6  ar
    20     6    17  ar
    21    17    41  ar
    22    41    42  ar
    23    42    43  ar
    24    14    15  ar
    25    16    50   2
    26    16    45  am
    27    45    19   1
    28    19    27   1
    29    19    20   1
    30    20    21   1
    31    21     4   1
    32    21    22   1
    33    27    51   2
    34    27    46  am
    35    46    30   1
    36    30    35  ar
    37    30    31  ar
    38    31    32  ar
    39    32    33  ar
    40    33    34  ar
    41    34    35  ar
    42    23    24   1
    43    24    25   1
    44    25    44   1
    45    44    28   1
    46    44    26  am
    47    26    47   2
    48    26    29   1
    49    29    37  ar
    50    29    36  ar
    51    36    28   1
    52    36    38  ar
    53    38    39  ar
    54    39    40  ar
    55    40    37  ar
    56    41    52   1
    57     1    53   1
    58     1    54   1
    59     2    55   1
    60     4    56   1
    61     4    57   1
    62     4    58   1
    63     6    59   1
    64     7    60   1
    65     8    61   1
    66     8    62   1
    67     9    63   1
    68     9    64   1
    69    11    65   1
    70    12    66   1
    71    14    67   1
    72    15    68   1
    73    17    69   1
    74    18    70   1
    75    18    71   1
    76    19    72   1
    77    20    73   1
    78    20    74   1
    79    21    75   1
    80    22    76   1
    81    22    77   1
    82    22    78   1
    83    23    79   1
    84    23    80   1
    85    24    81   1
    86    24    82   1
    87    25    83   1
    88    25    84   1
    89    28    85   1
    90    28    86   1
    91    31    87   1
    92    32    88   1
    93    33    89   1
    94    34    90   1
    95    35    91   1
    96    37    92   1
    97    38    93   1
    98    39    94   1
    99    40    95   1
   100    42    96   1
   101    43    97   1
   102    45    98   1
   103    46    99   1
@<TRIPOS>SUBSTRUCTURE
     1  L04      1

