@<TRIPOS>MOLECULE
1hfs_ligand_055
    99   103
SMALL
GAST_HUCK
****
This file was generated by PARSER (from files_GN.cpp)

@<TRIPOS>ATOM
      1 C1         33.0717   36.8598   23.6961 C.3         1 L04      -0.0384
      2 C2         32.0792   38.0741   23.6022 C.3         1 L04       0.0141
      3 C3         31.2956   38.2962   24.8472 C.2         1 L04       0.0380
      4 C4         25.4048   36.8027   21.7488 C.3         1 L04      -0.0625
      5 C5         30.7639   39.9750   13.6235 C.ar        1 L04      -0.0257
      6 C6         29.7436   40.4367   12.7535 C.ar        1 L04      -0.0571
      7 C7         30.6634   39.2753   21.6652 C.3         1 L04       0.0523
      8 C8         30.4237   39.1176   20.1208 C.3         1 L04      -0.0232
      9 C9         30.2147   40.4613   19.3606 C.3         1 L04      -0.0166
     10 C10        30.3528   40.3211   17.8829 C.ar        1 L04      -0.0424
     11 C11        31.5923   40.5700   17.2516 C.ar        1 L04      -0.0596
     12 C12        31.7262   40.4542   15.8549 C.ar        1 L04      -0.0610
     13 C13        30.6262   40.0846   15.0436 C.ar        1 L04      -0.0267
     14 C14        29.3924   39.8199   15.6870 C.ar        1 L04      -0.0610
     15 C15        29.2566   39.9352   17.0816 C.ar        1 L04      -0.0596
     16 C16        29.4843   39.8620   22.3011 C.2         1 L04       0.1816
     17 C17        29.8601   40.2995   11.3549 C.ar        1 L04      -0.0282
     18 C18        31.1309   37.9352   22.3487 C.3         1 L04      -0.0186
     19 C19        27.0634   39.5705   22.8231 C.3         1 L04       0.1369
     20 C20        26.0019   39.3387   21.6919 C.3         1 L04      -0.0096
     21 C21        26.0104   37.9713   20.9242 C.3         1 L04      -0.0425
     22 C22        25.3104   38.0849   19.5391 C.3         1 L04      -0.0625
     23 C23        34.2627   37.0324   24.6874 C.3         1 L04      -0.0495
     24 C24        35.3622   35.9325   24.5680 C.3         1 L04      -0.0323
     25 C25        36.0969   35.8260   23.1984 C.3         1 L04       0.0356
     26 C26        38.0274   37.3403   23.2926 C.2         1 L04       0.2046
     27 C27        26.7547   38.9462   24.1113 C.2         1 L04       0.2292
     28 C28        36.3277   37.9916   21.8999 C.3         1 L04       0.0703
     29 C29        38.4367   38.5125   22.7412 C.ar        1 L04       0.0535
     30 C30        25.1117   38.9750   25.9514 C.ar        1 L04       0.0663
     31 C31        25.6050   37.9931   26.8463 C.ar        1 L04      -0.0413
     32 C32        25.0150   37.8065   28.1120 C.ar        1 L04      -0.0755
     33 C33        23.9257   38.5995   28.5077 C.ar        1 L04      -0.0772
     34 C34        23.4226   39.5790   27.6341 C.ar        1 L04      -0.0755
     35 C35        24.0099   39.7602   26.3680 C.ar        1 L04      -0.0413
     36 C36        37.4219   38.9601   21.8987 C.ar        1 L04      -0.0003
     37 C37        39.6240   39.2515   22.8986 C.ar        1 L04      -0.0484
     38 C38        37.5421   40.1811   21.2101 C.ar        1 L04      -0.0524
     39 C39        38.7228   40.9380   21.3692 C.ar        1 L04      -0.0641
     40 C40        39.7624   40.4697   22.2026 C.ar        1 L04      -0.0630
     41 C41        31.0075   39.7042   10.7998 C.ar        1 L04       0.1322
     42 C42        32.0338   39.2457   11.6455 C.ar        1 L04      -0.0282
     43 C43        31.9111   39.3784   13.0398 C.ar        1 L04      -0.0571
     44 N1         36.8220   37.0187   22.8383 N.am        1 L04      -0.2613
     45 N18        28.3538   39.1698   22.3301 N.am        1 L04      -0.2649
     46 N29        25.6078   39.2633   24.7059 N.am        1 L04      -0.2320
     47 O1         38.6972   36.6879   24.0828 O.2         1 L04      -0.3882
     48 O4         31.5083   37.5850   25.9810 O.co2       1 L04      -0.5687
     49 O5         30.4755   39.3660   24.9540 O.co2       1 L04      -0.5687
     50 O17        29.5451   40.9981   22.7530 O.2         1 L04      -0.3966
     51 O28        27.6053   38.2765   24.6866 O.2         1 L04      -0.3823
     52 F1         31.1163   39.5760    9.5051 F           1 L04      -0.1835
     53 H1         32.5174   35.9500   23.9518 H           1 L04       0.0286
     54 H2         33.5048   36.7064   22.7093 H           1 L04       0.0286
     55 H3         32.6990   38.9637   23.4545 H           1 L04       0.0467
     56 H4         25.4512   35.8659   21.1874 H           1 L04       0.0232
     57 H5         24.3608   37.0033   22.0022 H           1 L04       0.0232
     58 H6         25.9721   36.6650   22.6674 H           1 L04       0.0232
     59 H7         28.9019   40.8805   13.1260 H           1 L04       0.0606
     60 H8         31.4978   39.9815   21.7490 H           1 L04       0.0541
     61 H9         29.5674   38.4607   19.9406 H           1 L04       0.0315
     62 H10        31.3053   38.6326   19.6901 H           1 L04       0.0315
     63 H11        30.9430   41.1930   19.7245 H           1 L04       0.0430
     64 H12        29.2257   40.8662   19.5972 H           1 L04       0.0430
     65 H13        32.4082   40.8416   17.8042 H           1 L04       0.0559
     66 H14        32.6365   40.6564   15.4374 H           1 L04       0.0604
     67 H15        28.5777   39.5249   15.1413 H           1 L04       0.0604
     68 H16        28.3480   39.7391   17.5132 H           1 L04       0.0559
     69 H17        29.1091   40.6326   10.7470 H           1 L04       0.0604
     70 H18        30.2729   37.3078   22.6111 H           1 L04       0.0313
     71 H19        31.6658   37.3699   21.5841 H           1 L04       0.0313
     72 H20        27.0702   40.6464   23.0175 H           1 L04       0.0805
     73 H21        26.1783   40.1267   20.9532 H           1 L04       0.0315
     74 H22        24.9962   39.5105   22.0862 H           1 L04       0.0315
     75 H23        27.0464   37.7130   20.7054 H           1 L04       0.0298
     76 H24        25.8231   38.8319   18.9272 H           1 L04       0.0232
     77 H25        24.2659   38.3844   19.6525 H           1 L04       0.0232
     78 H26        25.3490   37.1316   19.0039 H           1 L04       0.0232
     79 H27        33.8710   37.0149   25.7082 H           1 L04       0.0267
     80 H28        34.7284   38.0096   24.5442 H           1 L04       0.0267
     81 H29        34.9083   34.9619   24.7892 H           1 L04       0.0285
     82 H30        36.1154   36.1185   25.3380 H           1 L04       0.0285
     83 H31        35.3797   35.5695   22.4165 H           1 L04       0.0523
     84 H32        36.7953   34.9833   23.2376 H           1 L04       0.0523
     85 H33        35.4029   38.4595   22.2422 H           1 L04       0.0699
     86 H34        36.1906   37.5595   20.9056 H           1 L04       0.0699
     87 H35        26.3855   37.3873   26.5925 H           1 L04       0.0502
     88 H36        25.3771   37.0918   28.7467 H           1 L04       0.0577
     89 H37        23.4974   38.4603   29.4249 H           1 L04       0.0487
     90 H38        22.6291   40.1577   27.9183 H           1 L04       0.0577
     91 H39        23.6220   40.4783   25.7489 H           1 L04       0.0502
     92 H40        40.3737   38.9128   23.5071 H           1 L04       0.0651
     93 H41        36.7865   40.5159   20.6103 H           1 L04       0.0569
     94 H42        38.8271   41.8291   20.8795 H           1 L04       0.0635
     95 H43        40.6182   41.0196   22.3058 H           1 L04       0.0572
     96 H44        32.8678   38.8059   11.2445 H           1 L04       0.0604
     97 H45        32.6624   39.0090   13.6298 H           1 L04       0.0606
     98 H46        28.4010   38.2621   21.9910 H           1 L04       0.1883
     99 H47        25.0349   39.8442   24.1853 H           1 L04       0.2257
@<TRIPOS>BOND
     1     1    23   1
     2     1     2   1
     3     2    18   1
     4     2     3   1
     5     3    49  ar
     6     3    48  ar
     7    18     7   1
     8     7    16   1
     9     7     8   1
    10     8     9   1
    11     9    10   1
    12    10    15  ar
    13    10    11  ar
    14    11    12  ar
    15    12    13  ar
    16    13    14  ar
    17    13     5   1
    18     5    43  ar
    19     5     6  ar
    20     6    17  ar
    21    17    41  ar
    22    41    42  ar
    23    42    43  ar
    24    14    15  ar
    25    16    50   2
    26    16    45  am
    27    45    19   1
    28    19    27   1
    29    19    20   1
    30    20    21   1
    31    21     4   1
    32    21    22   1
    33    27    51   2
    34    27    46  am
    35    46    30   1
    36    30    35  ar
    37    30    31  ar
    38    31    32  ar
    39    32    33  ar
    40    33    34  ar
    41    34    35  ar
    42    23    24   1
    43    24    25   1
    44    25    44   1
    45    44    28   1
    46    44    26  am
    47    26    47   2
    48    26    29   1
    49    29    37  ar
    50    29    36  ar
    51    36    28   1
    52    36    38  ar
    53    38    39  ar
    54    39    40  ar
    55    40    37  ar
    56    41    52   1
    57     1    53   1
    58     1    54   1
    59     2    55   1
    60     4    56   1
    61     4    57   1
    62     4    58   1
    63     6    59   1
    64     7    60   1
    65     8    61   1
    66     8    62   1
    67     9    63   1
    68     9    64   1
    69    11    65   1
    70    12    66   1
    71    14    67   1
    72    15    68   1
    73    17    69   1
    74    18    70   1
    75    18    71   1
    76    19    72   1
    77    20    73   1
    78    20    74   1
    79    21    75   1
    80    22    76   1
    81    22    77   1
    82    22    78   1
    83    23    79   1
    84    23    80   1
    85    24    81   1
    86    24    82   1
    87    25    83   1
    88    25    84   1
    89    28    85   1
    90    28    86   1
    91    31    87   1
    92    32    88   1
    93    33    89   1
    94    34    90   1
    95    35    91   1
    96    37    92   1
    97    38    93   1
    98    39    94   1
    99    40    95   1
   100    42    96   1
   101    43    97   1
   102    45    98   1
   103    46    99   1
@<TRIPOS>SUBSTRUCTURE
     1  L04      1

