@<TRIPOS>MOLECULE
1hfs_ligand_038
    99   103
SMALL
GAST_HUCK
****
This file was generated by PARSER (from files_GN.cpp)

@<TRIPOS>ATOM
      1 C1         34.2156   36.2479   23.6471 C.3         1 L04      -0.0384
      2 C2         33.0041   37.1725   23.9943 C.3         1 L04       0.0141
      3 C3         32.6062   37.0773   25.4334 C.2         1 L04       0.0380
      4 C4         23.9396   38.8267   23.0544 C.3         1 L04      -0.0625
      5 C5         33.5936   42.5166   16.9854 C.ar        1 L04      -0.0257
      6 C6         33.5404   43.8699   16.5775 C.ar        1 L04      -0.0571
      7 C7         30.7879   38.1451   22.9501 C.3         1 L04       0.0523
      8 C8         31.0586   38.9132   21.6026 C.3         1 L04      -0.0232
      9 C9         30.8896   40.4639   21.6263 C.3         1 L04      -0.0166
     10 C10        31.5676   41.0925   20.4574 C.ar        1 L04      -0.0424
     11 C11        30.8369   41.5635   19.3419 C.ar        1 L04      -0.0596
     12 C12        31.5018   42.0596   18.2048 C.ar        1 L04      -0.0610
     13 C13        32.9136   42.0834   18.1500 C.ar        1 L04      -0.0267
     14 C14        33.6457   41.6404   19.2734 C.ar        1 L04      -0.0610
     15 C15        32.9799   41.1671   20.4176 C.ar        1 L04      -0.0596
     16 C16        29.3610   37.8389   23.1364 C.2         1 L04       0.1816
     17 C17        34.2632   44.3073   15.4514 C.ar        1 L04      -0.0282
     18 C18        31.7758   36.9127   23.0586 C.3         1 L04      -0.0186
     19 C19        27.0184   38.7311   23.2776 C.3         1 L04       0.1369
     20 C20        26.2428   37.8601   22.2170 C.3         1 L04      -0.0096
     21 C21        24.7522   38.2193   21.8762 C.3         1 L04      -0.0425
     22 C22        24.6399   39.1112   20.6068 C.3         1 L04      -0.0625
     23 C23        35.5284   36.5226   24.4373 C.3         1 L04      -0.0495
     24 C24        36.7933   35.7894   23.9027 C.3         1 L04      -0.0323
     25 C25        37.4974   36.4728   22.6839 C.3         1 L04       0.0356
     26 C26        39.5837   37.5259   23.4442 C.2         1 L04       0.2046
     27 C27        26.7718   38.3018   24.6499 C.2         1 L04       0.2292
     28 C28        39.7959   35.4134   22.5809 C.3         1 L04       0.0703
     29 C29        40.8882   37.1895   23.6232 C.ar        1 L04       0.0535
     30 C30        25.7772   38.7665   26.7669 C.ar        1 L04       0.0663
     31 C31        24.6918   37.9025   27.0410 C.ar        1 L04      -0.0413
     32 C32        24.3990   37.5295   28.3639 C.ar        1 L04      -0.0755
     33 C33        25.1991   38.0062   29.4225 C.ar        1 L04      -0.0772
     34 C34        26.2622   38.8867   29.1591 C.ar        1 L04      -0.0755
     35 C35        26.5495   39.2729   27.8397 C.ar        1 L04      -0.0413
     36 C36        41.0666   35.9076   23.1087 C.ar        1 L04      -0.0003
     37 C37        41.9526   37.8786   24.2362 C.ar        1 L04      -0.0484
     38 C38        42.3206   35.2735   23.1776 C.ar        1 L04      -0.0524
     39 C39        43.3991   35.9570   23.7795 C.ar        1 L04      -0.0641
     40 C40        43.2150   37.2523   24.3103 C.ar        1 L04      -0.0630
     41 C41        35.0378   43.3946   14.7095 C.ar        1 L04       0.1322
     42 C42        35.0899   42.0431   15.0996 C.ar        1 L04      -0.0282
     43 C43        34.3791   41.6105   16.2354 C.ar        1 L04      -0.0571
     44 N1         38.9283   36.5250   22.8652 N.am        1 L04      -0.2613
     45 N18        28.4466   38.8049   23.0609 N.am        1 L04      -0.2649
     46 N29        26.1063   39.0949   25.4884 N.am        1 L04      -0.2320
     47 O1         39.0925   38.5731   23.8432 O.2         1 L04      -0.3882
     48 O4         31.3648   36.7191   25.8480 O.co2       1 L04      -0.5687
     49 O5         33.4460   37.4787   26.4158 O.co2       1 L04      -0.5687
     50 O17        28.9769   36.7205   23.4626 O.2         1 L04      -0.3966
     51 O28        27.2435   37.2320   25.0224 O.2         1 L04      -0.3823
     52 F1         35.7093   43.8001   13.6658 F           1 L04      -0.1835
     53 H1         33.9306   35.2022   23.8059 H           1 L04       0.0286
     54 H2         34.4337   36.3679   22.5821 H           1 L04       0.0286
     55 H3         33.3430   38.2051   23.8254 H           1 L04       0.0467
     56 H4         22.8948   38.9784   22.7680 H           1 L04       0.0232
     57 H5         24.3417   39.7958   23.3556 H           1 L04       0.0232
     58 H6         23.9572   38.1533   23.9134 H           1 L04       0.0232
     59 H7         33.0001   44.5535   17.1167 H           1 L04       0.0606
     60 H8         31.0396   38.8316   23.7683 H           1 L04       0.0541
     61 H9         30.4234   38.4940   20.8065 H           1 L04       0.0315
     62 H10        32.0938   38.7178   21.3007 H           1 L04       0.0315
     63 H11        31.3229   40.8773   22.5406 H           1 L04       0.0430
     64 H12        29.8275   40.7060   21.6305 H           1 L04       0.0430
     65 H13        29.8150   41.5186   19.3405 H           1 L04       0.0559
     66 H14        30.9464   42.3687   17.4024 H           1 L04       0.0604
     67 H15        34.6685   41.6504   19.2670 H           1 L04       0.0604
     68 H16        33.5375   40.8444   21.2118 H           1 L04       0.0559
     69 H17        34.2308   45.2932   15.1791 H           1 L04       0.0604
     70 H18        31.2674   36.0154   23.4104 H           1 L04       0.0313
     71 H19        32.1349   36.6493   22.0657 H           1 L04       0.0313
     72 H20        26.6807   39.7620   23.1453 H           1 L04       0.0805
     73 H21        26.2718   36.8105   22.5196 H           1 L04       0.0315
     74 H22        26.8151   37.8960   21.2825 H           1 L04       0.0315
     75 H23        24.2575   37.2816   21.6224 H           1 L04       0.0298
     76 H24        25.0393   38.5820   19.7385 H           1 L04       0.0232
     77 H25        25.1980   40.0427   20.7305 H           1 L04       0.0232
     78 H26        23.5994   39.3589   20.3870 H           1 L04       0.0232
     79 H27        35.3788   36.1978   25.4751 H           1 L04       0.0267
     80 H28        35.7277   37.5977   24.4615 H           1 L04       0.0267
     81 H29        36.5338   34.7597   23.6398 H           1 L04       0.0285
     82 H30        37.5024   35.7337   24.7347 H           1 L04       0.0285
     83 H31        37.1056   37.4832   22.5372 H           1 L04       0.0523
     84 H32        37.2601   35.9173   21.7707 H           1 L04       0.0523
     85 H33        39.8597   35.2199   21.5085 H           1 L04       0.0699
     86 H34        39.4846   34.5147   23.1157 H           1 L04       0.0699
     87 H35        24.0980   37.5588   26.2824 H           1 L04       0.0502
     88 H36        23.6011   36.9272   28.5624 H           1 L04       0.0577
     89 H37        25.0002   37.7175   30.3826 H           1 L04       0.0487
     90 H38        26.8292   39.2534   29.9247 H           1 L04       0.0577
     91 H39        27.3299   39.9089   27.6464 H           1 L04       0.0502
     92 H40        41.8147   38.8120   24.6323 H           1 L04       0.0651
     93 H41        42.4474   34.3285   22.8078 H           1 L04       0.0569
     94 H42        44.3159   35.5069   23.8432 H           1 L04       0.0635
     95 H43        43.9967   37.7353   24.7578 H           1 L04       0.0572
     96 H44        35.6475   41.3747   14.5611 H           1 L04       0.0604
     97 H45        34.4367   40.6223   16.5033 H           1 L04       0.0606
     98 H46        28.7898   39.6880   22.8237 H           1 L04       0.1883
     99 H47        25.9038   40.0059   25.2001 H           1 L04       0.2257
@<TRIPOS>BOND
     1     1    23   1
     2     1     2   1
     3     2    18   1
     4     2     3   1
     5     3    49  ar
     6     3    48  ar
     7    18     7   1
     8     7    16   1
     9     7     8   1
    10     8     9   1
    11     9    10   1
    12    10    15  ar
    13    10    11  ar
    14    11    12  ar
    15    12    13  ar
    16    13    14  ar
    17    13     5   1
    18     5    43  ar
    19     5     6  ar
    20     6    17  ar
    21    17    41  ar
    22    41    42  ar
    23    42    43  ar
    24    14    15  ar
    25    16    50   2
    26    16    45  am
    27    45    19   1
    28    19    27   1
    29    19    20   1
    30    20    21   1
    31    21     4   1
    32    21    22   1
    33    27    51   2
    34    27    46  am
    35    46    30   1
    36    30    35  ar
    37    30    31  ar
    38    31    32  ar
    39    32    33  ar
    40    33    34  ar
    41    34    35  ar
    42    23    24   1
    43    24    25   1
    44    25    44   1
    45    44    28   1
    46    44    26  am
    47    26    47   2
    48    26    29   1
    49    29    37  ar
    50    29    36  ar
    51    36    28   1
    52    36    38  ar
    53    38    39  ar
    54    39    40  ar
    55    40    37  ar
    56    41    52   1
    57     1    53   1
    58     1    54   1
    59     2    55   1
    60     4    56   1
    61     4    57   1
    62     4    58   1
    63     6    59   1
    64     7    60   1
    65     8    61   1
    66     8    62   1
    67     9    63   1
    68     9    64   1
    69    11    65   1
    70    12    66   1
    71    14    67   1
    72    15    68   1
    73    17    69   1
    74    18    70   1
    75    18    71   1
    76    19    72   1
    77    20    73   1
    78    20    74   1
    79    21    75   1
    80    22    76   1
    81    22    77   1
    82    22    78   1
    83    23    79   1
    84    23    80   1
    85    24    81   1
    86    24    82   1
    87    25    83   1
    88    25    84   1
    89    28    85   1
    90    28    86   1
    91    31    87   1
    92    32    88   1
    93    33    89   1
    94    34    90   1
    95    35    91   1
    96    37    92   1
    97    38    93   1
    98    39    94   1
    99    40    95   1
   100    42    96   1
   101    43    97   1
   102    45    98   1
   103    46    99   1
@<TRIPOS>SUBSTRUCTURE
     1  L04      1

