@<TRIPOS>MOLECULE
1hfs_ligand_044
    99   103
SMALL
GAST_HUCK
****
This file was generated by PARSER (from files_GN.cpp)

@<TRIPOS>ATOM
      1 C1         30.9106   38.9875   25.0199 C.3         1 L04      -0.0384
      2 C2         30.9640   40.2685   24.1213 C.3         1 L04       0.0141
      3 C3         29.7468   41.1246   24.2539 C.2         1 L04       0.0380
      4 C4         25.5793   38.0862   19.4322 C.3         1 L04      -0.0625
      5 C5         38.3416   37.7595   22.5798 C.ar        1 L04      -0.0257
      6 C6         39.4193   38.2819   23.3361 C.ar        1 L04      -0.0571
      7 C7         31.4387   41.0941   21.6239 C.3         1 L04       0.0523
      8 C8         32.7191   40.9957   20.7198 C.3         1 L04      -0.0232
      9 C9         34.0650   41.4404   21.3947 C.3         1 L04      -0.0166
     10 C10        35.0605   40.3647   21.6943 C.ar        1 L04      -0.0424
     11 C11        35.3293   39.9608   23.0229 C.ar        1 L04      -0.0596
     12 C12        36.3833   39.0753   23.3101 C.ar        1 L04      -0.0610
     13 C13        37.2102   38.5663   22.2793 C.ar        1 L04      -0.0267
     14 C14        36.9100   38.9330   20.9458 C.ar        1 L04      -0.0610
     15 C15        35.8616   39.8268   20.6590 C.ar        1 L04      -0.0596
     16 C16        30.2254   41.2604   20.8122 C.2         1 L04       0.1816
     17 C17        40.5436   37.4950   23.6446 C.ar        1 L04      -0.0282
     18 C18        31.2898   39.8985   22.6361 C.3         1 L04      -0.0186
     19 C19        28.8616   40.3832   18.8691 C.3         1 L04       0.1369
     20 C20        27.9066   39.1497   19.0365 C.3         1 L04      -0.0096
     21 C21        26.5021   39.3122   19.7092 C.3         1 L04      -0.0425
     22 C22        26.5762   39.5729   21.2392 C.3         1 L04      -0.0625
     23 C23        29.9057   37.8708   24.5855 C.3         1 L04      -0.0495
     24 C24        30.4342   36.8486   23.5335 C.3         1 L04      -0.0323
     25 C25        31.0050   35.5267   24.1054 C.3         1 L04       0.0356
     26 C26        33.0816   35.8717   25.3592 C.2         1 L04       0.2046
     27 C27        28.1639   41.6569   18.6437 C.2         1 L04       0.2292
     28 C28        33.3336   34.9213   23.2975 C.3         1 L04       0.0703
     29 C29        34.4077   35.6216   25.2401 C.ar        1 L04       0.0535
     30 C30        28.3300   43.8431   17.5080 C.ar        1 L04       0.0663
     31 C31        29.1119   44.4785   16.5159 C.ar        1 L04      -0.0413
     32 C32        28.9677   45.8541   16.2458 C.ar        1 L04      -0.0755
     33 C33        28.0313   46.6159   16.9645 C.ar        1 L04      -0.0772
     34 C34        27.2178   45.9970   17.9285 C.ar        1 L04      -0.0755
     35 C35        27.3548   44.6202   18.1955 C.ar        1 L04      -0.0413
     36 C36        34.6175   35.0527   23.9896 C.ar        1 L04      -0.0003
     37 C37        35.4758   35.8365   26.1323 C.ar        1 L04      -0.0484
     38 C38        35.9074   34.6700   23.5820 C.ar        1 L04      -0.0524
     39 C39        36.9879   34.8694   24.4685 C.ar        1 L04      -0.0641
     40 C40        36.7710   35.4503   25.7372 C.ar        1 L04      -0.0630
     41 C41        40.6140   36.1637   23.1947 C.ar        1 L04       0.1322
     42 C42        39.5603   35.6290   22.4293 C.ar        1 L04      -0.0282
     43 C43        38.4369   36.4217   22.1253 C.ar        1 L04      -0.0571
     44 N1         32.4358   35.4913   24.2660 N.am        1 L04      -0.2613
     45 N18        29.9158   40.3753   19.8633 N.am        1 L04      -0.2649
     46 N29        28.6362   42.5195   17.7423 N.am        1 L04      -0.2320
     47 O1         32.5790   36.3678   26.3517 O.2         1 L04      -0.3882
     48 O4         28.5943   40.6625   24.7883 O.co2       1 L04      -0.5687
     49 O5         29.7870   42.4524   24.0044 O.co2       1 L04      -0.5687
     50 O17        29.5251   42.2376   21.0394 O.2         1 L04      -0.3966
     51 O28        27.2988   41.9859   19.4484 O.2         1 L04      -0.3823
     52 F1         41.6463   35.4236   23.5023 F           1 L04      -0.1835
     53 H1         31.9196   38.5743   25.0816 H           1 L04       0.0286
     54 H2         30.6587   39.3103   26.0344 H           1 L04       0.0286
     55 H3         31.7966   40.8660   24.5006 H           1 L04       0.0467
     56 H4         24.5437   38.3052   19.7424 H           1 L04       0.0232
     57 H5         25.9274   37.2054   19.9805 H           1 L04       0.0232
     58 H6         25.5682   37.8547   18.3593 H           1 L04       0.0232
     59 H7         39.3999   39.2496   23.6644 H           1 L04       0.0606
     60 H8         31.5598   42.0186   22.1950 H           1 L04       0.0541
     61 H9         32.5822   41.6463   19.8475 H           1 L04       0.0315
     62 H10        32.8129   39.9822   20.3193 H           1 L04       0.0315
     63 H11        33.8557   42.0175   22.3008 H           1 L04       0.0430
     64 H12        34.5694   42.1466   20.7262 H           1 L04       0.0430
     65 H13        34.7825   40.3417   23.8007 H           1 L04       0.0559
     66 H14        36.5598   38.8267   24.2840 H           1 L04       0.0604
     67 H15        37.4886   38.5995   20.1746 H           1 L04       0.0604
     68 H16        35.7119   40.1196   19.6895 H           1 L04       0.0559
     69 H17        41.3051   37.8909   24.2037 H           1 L04       0.0604
     70 H18        30.5176   39.2050   22.2985 H           1 L04       0.0313
     71 H19        32.2253   39.3350   22.6155 H           1 L04       0.0313
     72 H20        29.4099   40.1651   17.9458 H           1 L04       0.0805
     73 H21        28.4520   38.3756   19.5946 H           1 L04       0.0315
     74 H22        27.7311   38.7450   18.0371 H           1 L04       0.0315
     75 H23        25.9931   40.1733   19.2526 H           1 L04       0.0298
     76 H24        27.1322   40.4862   21.4472 H           1 L04       0.0232
     77 H25        27.0656   38.7383   21.7569 H           1 L04       0.0232
     78 H26        25.5685   39.6935   21.6525 H           1 L04       0.0232
     79 H27        29.0072   38.3372   24.1745 H           1 L04       0.0267
     80 H28        29.5707   37.3281   25.4729 H           1 L04       0.0267
     81 H29        31.1785   37.3149   22.8873 H           1 L04       0.0285
     82 H30        29.5909   36.5739   22.8928 H           1 L04       0.0285
     83 H31        30.7080   34.7178   23.4348 H           1 L04       0.0523
     84 H32        30.5159   35.3216   25.0622 H           1 L04       0.0523
     85 H33        33.3308   35.4909   22.3675 H           1 L04       0.0699
     86 H34        33.1030   33.8700   23.1076 H           1 L04       0.0699
     87 H35        29.8211   43.9437   15.9989 H           1 L04       0.0502
     88 H36        29.5552   46.2945   15.5424 H           1 L04       0.0577
     89 H37        27.9445   47.6191   16.7870 H           1 L04       0.0487
     90 H38        26.5328   46.5503   18.4484 H           1 L04       0.0577
     91 H39        26.7401   44.2125   18.9020 H           1 L04       0.0502
     92 H40        35.3147   36.2503   27.0543 H           1 L04       0.0651
     93 H41        36.0573   34.2486   22.6639 H           1 L04       0.0569
     94 H42        37.9280   34.5835   24.1946 H           1 L04       0.0635
     95 H43        37.5557   35.5877   26.3758 H           1 L04       0.0572
     96 H44        39.6001   34.6549   22.1112 H           1 L04       0.0604
     97 H45        37.6679   35.9965   21.6004 H           1 L04       0.0606
     98 H46        30.5288   39.6155   19.7876 H           1 L04       0.1883
     99 H47        29.3737   42.1840   17.2051 H           1 L04       0.2257
@<TRIPOS>BOND
     1     1    23   1
     2     1     2   1
     3     2    18   1
     4     2     3   1
     5     3    49  ar
     6     3    48  ar
     7    18     7   1
     8     7    16   1
     9     7     8   1
    10     8     9   1
    11     9    10   1
    12    10    15  ar
    13    10    11  ar
    14    11    12  ar
    15    12    13  ar
    16    13    14  ar
    17    13     5   1
    18     5    43  ar
    19     5     6  ar
    20     6    17  ar
    21    17    41  ar
    22    41    42  ar
    23    42    43  ar
    24    14    15  ar
    25    16    50   2
    26    16    45  am
    27    45    19   1
    28    19    27   1
    29    19    20   1
    30    20    21   1
    31    21     4   1
    32    21    22   1
    33    27    51   2
    34    27    46  am
    35    46    30   1
    36    30    35  ar
    37    30    31  ar
    38    31    32  ar
    39    32    33  ar
    40    33    34  ar
    41    34    35  ar
    42    23    24   1
    43    24    25   1
    44    25    44   1
    45    44    28   1
    46    44    26  am
    47    26    47   2
    48    26    29   1
    49    29    37  ar
    50    29    36  ar
    51    36    28   1
    52    36    38  ar
    53    38    39  ar
    54    39    40  ar
    55    40    37  ar
    56    41    52   1
    57     1    53   1
    58     1    54   1
    59     2    55   1
    60     4    56   1
    61     4    57   1
    62     4    58   1
    63     6    59   1
    64     7    60   1
    65     8    61   1
    66     8    62   1
    67     9    63   1
    68     9    64   1
    69    11    65   1
    70    12    66   1
    71    14    67   1
    72    15    68   1
    73    17    69   1
    74    18    70   1
    75    18    71   1
    76    19    72   1
    77    20    73   1
    78    20    74   1
    79    21    75   1
    80    22    76   1
    81    22    77   1
    82    22    78   1
    83    23    79   1
    84    23    80   1
    85    24    81   1
    86    24    82   1
    87    25    83   1
    88    25    84   1
    89    28    85   1
    90    28    86   1
    91    31    87   1
    92    32    88   1
    93    33    89   1
    94    34    90   1
    95    35    91   1
    96    37    92   1
    97    38    93   1
    98    39    94   1
    99    40    95   1
   100    42    96   1
   101    43    97   1
   102    45    98   1
   103    46    99   1
@<TRIPOS>SUBSTRUCTURE
     1  L04      1

