@<TRIPOS>MOLECULE
1hfs_ligand_022
    99   103
SMALL
GAST_HUCK
****
This file was generated by PARSER (from files_GN.cpp)

@<TRIPOS>ATOM
      1 C1         33.9294   37.2900   23.5197 C.3         1 L04      -0.0384
      2 C2         32.5388   38.0171   23.5369 C.3         1 L04       0.0141
      3 C3         31.9744   38.1027   24.9127 C.2         1 L04       0.0380
      4 C4         25.1452   36.7016   21.3185 C.3         1 L04      -0.0625
      5 C5         28.1456   43.6957   17.6178 C.ar        1 L04      -0.0257
      6 C6         27.2334   44.3687   18.4678 C.ar        1 L04      -0.0571
      7 C7         30.4084   38.4268   21.9610 C.3         1 L04       0.0523
      8 C8         30.1911   38.2366   20.4124 C.3         1 L04      -0.0232
      9 C9         31.0976   39.1211   19.5057 C.3         1 L04      -0.0166
     10 C10        30.3867   40.3252   19.0006 C.ar        1 L04      -0.0424
     11 C11        29.6427   40.2646   17.7992 C.ar        1 L04      -0.0596
     12 C12        28.9146   41.3727   17.3476 C.ar        1 L04      -0.0610
     13 C13        28.8937   42.5826   18.0851 C.ar        1 L04      -0.0267
     14 C14        29.6374   42.6418   19.2870 C.ar        1 L04      -0.0610
     15 C15        30.3738   41.5310   19.7394 C.ar        1 L04      -0.0596
     16 C16        29.1325   38.3482   22.6626 C.2         1 L04       0.1816
     17 C17        26.4891   45.4663   18.0056 C.ar        1 L04      -0.0282
     18 C18        31.5375   37.4585   22.4743 C.3         1 L04      -0.0186
     19 C19        27.0638   39.6142   23.2786 C.3         1 L04       0.1369
     20 C20        26.0813   38.4278   22.9726 C.3         1 L04      -0.0096
     21 C21        25.8007   38.1025   21.4674 C.3         1 L04      -0.0425
     22 C22        24.9234   39.1777   20.7680 C.3         1 L04      -0.0625
     23 C23        33.9197   35.7269   23.5775 C.3         1 L04      -0.0495
     24 C24        34.9501   35.1002   24.5666 C.3         1 L04      -0.0323
     25 C25        34.5157   35.2776   26.0453 C.3         1 L04       0.0356
     26 C26        35.3901   33.3902   27.3642 C.2         1 L04       0.2046
     27 C27        27.1818   39.9407   24.7024 C.2         1 L04       0.2292
     28 C28        36.4070   35.4184   27.6978 C.3         1 L04       0.0703
     29 C29        36.2719   33.1938   28.3803 C.ar        1 L04       0.0535
     30 C30        28.6717   40.8113   26.4430 C.ar        1 L04       0.0663
     31 C31        29.5564   41.9091   26.5676 C.ar        1 L04      -0.0413
     32 C32        30.0113   42.3332   27.8302 C.ar        1 L04      -0.0755
     33 C33        29.5935   41.6581   28.9887 C.ar        1 L04      -0.0772
     34 C34        28.7298   40.5557   28.8873 C.ar        1 L04      -0.0755
     35 C35        28.2800   40.1269   27.6218 C.ar        1 L04      -0.0413
     36 C36        36.9160   34.4027   28.6293 C.ar        1 L04      -0.0003
     37 C37        36.5568   32.0533   29.1650 C.ar        1 L04      -0.0484
     38 C38        37.8522   34.5300   29.6611 C.ar        1 L04      -0.0524
     39 C39        38.1500   33.3975   30.4525 C.ar        1 L04      -0.0641
     40 C40        37.5023   32.1669   30.2003 C.ar        1 L04      -0.0630
     41 C41        26.6388   45.9143   16.6807 C.ar        1 L04       0.1322
     42 C42        27.5429   45.2608   15.8204 C.ar        1 L04      -0.0282
     43 C43        28.2839   44.1592   16.2836 C.ar        1 L04      -0.0571
     44 N1         35.4282   34.6605   26.9731 N.am        1 L04      -0.2613
     45 N18        28.3428   39.4244   22.6490 N.am        1 L04      -0.2649
     46 N29        28.3199   40.4451   25.1750 N.am        1 L04      -0.2320
     47 O1         34.6507   32.5188   26.9299 O.2         1 L04      -0.3882
     48 O4         32.2084   37.1596   25.8591 O.co2       1 L04      -0.5687
     49 O5         31.3875   39.2463   25.3267 O.co2       1 L04      -0.5687
     50 O17        28.7466   37.3053   23.1858 O.2         1 L04      -0.3966
     51 O28        26.1689   39.9562   25.4003 O.2         1 L04      -0.3823
     52 F1         25.9461   46.9313   16.2498 F           1 L04      -0.1835
     53 H1         34.4407   37.5794   22.5952 H           1 L04       0.0286
     54 H2         34.5352   37.6944   24.3374 H           1 L04       0.0286
     55 H3         32.7502   39.0498   23.2360 H           1 L04       0.0467
     56 H4         24.9667   36.4727   20.2660 H           1 L04       0.0232
     57 H5         24.1962   36.6616   21.8545 H           1 L04       0.0232
     58 H6         25.8012   35.9289   21.7231 H           1 L04       0.0232
     59 H7         27.0879   44.0455   19.4268 H           1 L04       0.0606
     60 H8         30.7806   39.4395   22.1316 H           1 L04       0.0541
     61 H9         29.1500   38.4248   20.1293 H           1 L04       0.0315
     62 H10        30.3638   37.1869   20.1601 H           1 L04       0.0315
     63 H11        31.4294   38.5160   18.6531 H           1 L04       0.0430
     64 H12        32.0052   39.4249   20.0341 H           1 L04       0.0430
     65 H13        29.6141   39.3998   17.2505 H           1 L04       0.0559
     66 H14        28.3787   41.2850   16.4798 H           1 L04       0.0604
     67 H15        29.6653   43.5032   19.8411 H           1 L04       0.0604
     68 H16        30.9034   41.6100   20.6085 H           1 L04       0.0559
     69 H17        25.8335   45.9376   18.6353 H           1 L04       0.0604
     70 H18        31.0741   36.5408   22.8459 H           1 L04       0.0313
     71 H19        32.1471   37.1717   21.6109 H           1 L04       0.0313
     72 H20        26.6387   40.5078   22.8115 H           1 L04       0.0805
     73 H21        25.1206   38.6358   23.4494 H           1 L04       0.0315
     74 H22        26.4933   37.5348   23.4503 H           1 L04       0.0315
     75 H23        26.7543   38.0590   20.9340 H           1 L04       0.0298
     76 H24        25.4321   40.1416   20.7572 H           1 L04       0.0232
     77 H25        23.9663   39.2886   21.2826 H           1 L04       0.0232
     78 H26        24.7281   38.8913   19.7339 H           1 L04       0.0232
     79 H27        34.1342   35.3453   22.5770 H           1 L04       0.0267
     80 H28        32.9269   35.3595   23.8368 H           1 L04       0.0267
     81 H29        35.9393   35.5403   24.4061 H           1 L04       0.0285
     82 H30        35.0333   34.0284   24.3598 H           1 L04       0.0285
     83 H31        33.5116   34.8616   26.1623 H           1 L04       0.0523
     84 H32        34.4435   36.3412   26.2756 H           1 L04       0.0523
     85 H33        35.9512   36.2425   28.2500 H           1 L04       0.0699
     86 H34        37.2057   35.7824   27.0484 H           1 L04       0.0699
     87 H35        29.8782   42.4064   25.7350 H           1 L04       0.0502
     88 H36        30.6452   43.1311   27.9040 H           1 L04       0.0577
     89 H37        29.9238   41.9641   29.9079 H           1 L04       0.0487
     90 H38        28.4327   40.0567   29.7300 H           1 L04       0.0577
     91 H39        27.6938   39.2938   27.5740 H           1 L04       0.0502
     92 H40        36.0765   31.1721   28.9908 H           1 L04       0.0651
     93 H41        38.3003   35.4278   29.8528 H           1 L04       0.0569
     94 H42        38.8296   33.4734   31.2088 H           1 L04       0.0635
     95 H43        37.7207   31.3534   30.7797 H           1 L04       0.0572
     96 H44        27.6621   45.5866   14.8571 H           1 L04       0.0604
     97 H45        28.9352   43.7029   15.6401 H           1 L04       0.0606
     98 H46        28.6929   40.1937   22.1699 H           1 L04       0.1883
     99 H47        29.0073   40.5972   24.5060 H           1 L04       0.2257
@<TRIPOS>BOND
     1     1    23   1
     2     1     2   1
     3     2    18   1
     4     2     3   1
     5     3    49  ar
     6     3    48  ar
     7    18     7   1
     8     7    16   1
     9     7     8   1
    10     8     9   1
    11     9    10   1
    12    10    15  ar
    13    10    11  ar
    14    11    12  ar
    15    12    13  ar
    16    13    14  ar
    17    13     5   1
    18     5    43  ar
    19     5     6  ar
    20     6    17  ar
    21    17    41  ar
    22    41    42  ar
    23    42    43  ar
    24    14    15  ar
    25    16    50   2
    26    16    45  am
    27    45    19   1
    28    19    27   1
    29    19    20   1
    30    20    21   1
    31    21     4   1
    32    21    22   1
    33    27    51   2
    34    27    46  am
    35    46    30   1
    36    30    35  ar
    37    30    31  ar
    38    31    32  ar
    39    32    33  ar
    40    33    34  ar
    41    34    35  ar
    42    23    24   1
    43    24    25   1
    44    25    44   1
    45    44    28   1
    46    44    26  am
    47    26    47   2
    48    26    29   1
    49    29    37  ar
    50    29    36  ar
    51    36    28   1
    52    36    38  ar
    53    38    39  ar
    54    39    40  ar
    55    40    37  ar
    56    41    52   1
    57     1    53   1
    58     1    54   1
    59     2    55   1
    60     4    56   1
    61     4    57   1
    62     4    58   1
    63     6    59   1
    64     7    60   1
    65     8    61   1
    66     8    62   1
    67     9    63   1
    68     9    64   1
    69    11    65   1
    70    12    66   1
    71    14    67   1
    72    15    68   1
    73    17    69   1
    74    18    70   1
    75    18    71   1
    76    19    72   1
    77    20    73   1
    78    20    74   1
    79    21    75   1
    80    22    76   1
    81    22    77   1
    82    22    78   1
    83    23    79   1
    84    23    80   1
    85    24    81   1
    86    24    82   1
    87    25    83   1
    88    25    84   1
    89    28    85   1
    90    28    86   1
    91    31    87   1
    92    32    88   1
    93    33    89   1
    94    34    90   1
    95    35    91   1
    96    37    92   1
    97    38    93   1
    98    39    94   1
    99    40    95   1
   100    42    96   1
   101    43    97   1
   102    45    98   1
   103    46    99   1
@<TRIPOS>SUBSTRUCTURE
     1  L04      1

