@<TRIPOS>MOLECULE
1hfs_ligand_095
    99   103
SMALL
GAST_HUCK
****
This file was generated by PARSER (from files_GN.cpp)

@<TRIPOS>ATOM
      1 C1         28.1231   39.5208   26.8752 C.3         1 L04      -0.0384
      2 C2         28.3953   39.1910   25.3565 C.3         1 L04       0.0141
      3 C3         27.2295   39.6174   24.5308 C.2         1 L04       0.0380
      4 C4         36.5201   36.5692   22.9384 C.3         1 L04      -0.0625
      5 C5         28.9807   41.0525   16.8701 C.ar        1 L04      -0.0257
      6 C6         28.6829   40.4304   15.6342 C.ar        1 L04      -0.0571
      7 C7         29.8497   37.3962   23.9553 C.3         1 L04       0.0523
      8 C8         29.7840   38.3802   22.7326 C.3         1 L04      -0.0232
      9 C9         30.6197   38.0092   21.4699 C.3         1 L04      -0.0166
     10 C10        30.2087   38.7876   20.2718 C.ar        1 L04      -0.0424
     11 C11        31.1370   39.5852   19.5637 C.ar        1 L04      -0.0596
     12 C12        30.7326   40.3377   18.4458 C.ar        1 L04      -0.0610
     13 C13        29.3948   40.2872   17.9865 C.ar        1 L04      -0.0267
     14 C14        28.4702   39.4762   18.6840 C.ar        1 L04      -0.0610
     15 C15        28.8691   38.7491   19.8183 C.ar        1 L04      -0.0596
     16 C16        31.2136   37.2688   24.4801 C.2         1 L04       0.1816
     17 C17        28.2468   41.1906   14.5376 C.ar        1 L04      -0.0282
     18 C18        28.7615   37.6882   25.0633 C.3         1 L04      -0.0186
     19 C19        33.5388   36.4661   24.0325 C.3         1 L04       0.1369
     20 C20        34.4165   37.7678   23.9043 C.3         1 L04      -0.0096
     21 C21        35.5540   37.7804   22.8339 C.3         1 L04      -0.0425
     22 C22        35.0178   37.9513   21.3824 C.3         1 L04      -0.0625
     23 C23        29.2767   40.2140   27.6613 C.3         1 L04      -0.0495
     24 C24        29.8355   41.5682   27.1291 C.3         1 L04      -0.0323
     25 C25        28.7972   42.6778   26.7601 C.3         1 L04       0.0356
     26 C26        27.6714   44.0301   28.5017 C.2         1 L04       0.2046
     27 C27        33.7293   35.7735   25.3058 C.2         1 L04       0.2292
     28 C28        29.7458   44.7364   27.8488 C.3         1 L04       0.0703
     29 C29        27.8959   45.1819   29.1888 C.ar        1 L04       0.0535
     30 C30        35.0259   34.1112   26.5062 C.ar        1 L04       0.0663
     31 C31        34.8665   32.7073   26.6130 C.ar        1 L04      -0.0413
     32 C32        35.4411   31.9955   27.6815 C.ar        1 L04      -0.0755
     33 C33        36.2059   32.6703   28.6488 C.ar        1 L04      -0.0772
     34 C34        36.3825   34.0653   28.5534 C.ar        1 L04      -0.0755
     35 C35        35.7888   34.7794   27.4955 C.ar        1 L04      -0.0413
     36 C36        29.1535   45.6535   28.8150 C.ar        1 L04      -0.0003
     37 C37        27.1093   45.9013   30.1105 C.ar        1 L04      -0.0484
     38 C38        29.6685   46.8540   29.3409 C.ar        1 L04      -0.0524
     39 C39        28.8899   47.5772   30.2658 C.ar        1 L04      -0.0641
     40 C40        27.6164   47.1038   30.6504 C.ar        1 L04      -0.0630
     41 C41        28.0990   42.5877   14.6580 C.ar        1 L04       0.1322
     42 C42        28.3950   43.2175   15.8840 C.ar        1 L04      -0.0282
     43 C43        28.8342   42.4567   16.9783 C.ar        1 L04      -0.0571
     44 N1         28.7094   43.7492   27.7193 N.am        1 L04      -0.2613
     45 N18        32.1486   36.6913   23.7346 N.am        1 L04      -0.2649
     46 N29        34.5489   34.7278   25.3915 N.am        1 L04      -0.2320
     47 O1         26.6358   43.3779   28.5852 O.2         1 L04      -0.3882
     48 O4         25.9642   39.4006   24.9543 O.co2       1 L04      -0.5687
     49 O5         27.4021   40.1805   23.3134 O.co2       1 L04      -0.5687
     50 O17        31.4868   37.5724   25.6465 O.2         1 L04      -0.3966
     51 O28        33.0867   36.1750   26.2760 O.2         1 L04      -0.3823
     52 F1         27.6940   43.2940   13.6418 F           1 L04      -0.1835
     53 H1         27.2338   40.1500   26.9899 H           1 L04       0.0286
     54 H2         27.8733   38.5924   27.4038 H           1 L04       0.0286
     55 H3         29.2419   39.7921   25.0372 H           1 L04       0.0467
     56 H4         37.3865   36.7210   22.2884 H           1 L04       0.0232
     57 H5         36.0300   35.6397   22.6399 H           1 L04       0.0232
     58 H6         36.8820   36.4566   23.9638 H           1 L04       0.0232
     59 H7         28.7869   39.4182   15.5234 H           1 L04       0.0606
     60 H8         29.5776   36.4115   23.5587 H           1 L04       0.0541
     61 H9         30.1226   39.3702   23.0519 H           1 L04       0.0315
     62 H10        28.7347   38.4606   22.4348 H           1 L04       0.0315
     63 H11        30.5131   36.9413   21.2579 H           1 L04       0.0430
     64 H12        31.6779   38.1942   21.6816 H           1 L04       0.0430
     65 H13        32.1133   39.6365   19.8654 H           1 L04       0.0559
     66 H14        31.4264   40.9166   17.9632 H           1 L04       0.0604
     67 H15        27.4915   39.4233   18.3868 H           1 L04       0.0604
     68 H16        28.1692   38.1950   20.3101 H           1 L04       0.0559
     69 H17        28.0327   40.7285   13.6507 H           1 L04       0.0604
     70 H18        27.8425   37.1441   24.8013 H           1 L04       0.0313
     71 H19        29.1082   37.2241   25.9896 H           1 L04       0.0313
     72 H20        33.8503   35.7790   23.2402 H           1 L04       0.0805
     73 H21        34.8769   38.0028   24.8669 H           1 L04       0.0315
     74 H22        33.7710   38.6190   23.6788 H           1 L04       0.0315
     75 H23        36.1583   38.6709   23.0335 H           1 L04       0.0298
     76 H24        34.4166   38.8577   21.3033 H           1 L04       0.0232
     77 H25        34.4021   37.1040   21.0793 H           1 L04       0.0232
     78 H26        35.8516   38.0356   20.6819 H           1 L04       0.0232
     79 H27        30.1117   39.5124   27.7146 H           1 L04       0.0267
     80 H28        28.9276   40.3767   28.6859 H           1 L04       0.0267
     81 H29        30.4549   41.3669   26.2488 H           1 L04       0.0285
     82 H30        30.5207   41.9613   27.8847 H           1 L04       0.0285
     83 H31        27.8140   42.2376   26.5887 H           1 L04       0.0523
     84 H32        29.0840   43.1109   25.7955 H           1 L04       0.0523
     85 H33        29.9331   45.2481   26.9000 H           1 L04       0.0699
     86 H34        30.6687   44.3039   28.2422 H           1 L04       0.0699
     87 H35        34.3411   32.1933   25.9028 H           1 L04       0.0502
     88 H36        35.3188   30.9818   27.7478 H           1 L04       0.0577
     89 H37        36.6330   32.1542   29.4207 H           1 L04       0.0487
     90 H38        36.9463   34.5548   29.2517 H           1 L04       0.0577
     91 H39        35.9568   35.7841   27.4251 H           1 L04       0.0502
     92 H40        26.1842   45.5622   30.3834 H           1 L04       0.0651
     93 H41        30.5894   47.1915   29.0542 H           1 L04       0.0569
     94 H42        29.2482   48.4507   30.6584 H           1 L04       0.0635
     95 H43        27.0588   47.6341   31.3223 H           1 L04       0.0572
     96 H44        28.2830   44.2305   15.9795 H           1 L04       0.0604
     97 H45        29.0277   42.9312   17.8650 H           1 L04       0.0606
     98 H46        31.8677   36.4384   22.8405 H           1 L04       0.1883
     99 H47        34.8475   34.3460   24.5505 H           1 L04       0.2257
@<TRIPOS>BOND
     1     1    23   1
     2     1     2   1
     3     2    18   1
     4     2     3   1
     5     3    49  ar
     6     3    48  ar
     7    18     7   1
     8     7    16   1
     9     7     8   1
    10     8     9   1
    11     9    10   1
    12    10    15  ar
    13    10    11  ar
    14    11    12  ar
    15    12    13  ar
    16    13    14  ar
    17    13     5   1
    18     5    43  ar
    19     5     6  ar
    20     6    17  ar
    21    17    41  ar
    22    41    42  ar
    23    42    43  ar
    24    14    15  ar
    25    16    50   2
    26    16    45  am
    27    45    19   1
    28    19    27   1
    29    19    20   1
    30    20    21   1
    31    21     4   1
    32    21    22   1
    33    27    51   2
    34    27    46  am
    35    46    30   1
    36    30    35  ar
    37    30    31  ar
    38    31    32  ar
    39    32    33  ar
    40    33    34  ar
    41    34    35  ar
    42    23    24   1
    43    24    25   1
    44    25    44   1
    45    44    28   1
    46    44    26  am
    47    26    47   2
    48    26    29   1
    49    29    37  ar
    50    29    36  ar
    51    36    28   1
    52    36    38  ar
    53    38    39  ar
    54    39    40  ar
    55    40    37  ar
    56    41    52   1
    57     1    53   1
    58     1    54   1
    59     2    55   1
    60     4    56   1
    61     4    57   1
    62     4    58   1
    63     6    59   1
    64     7    60   1
    65     8    61   1
    66     8    62   1
    67     9    63   1
    68     9    64   1
    69    11    65   1
    70    12    66   1
    71    14    67   1
    72    15    68   1
    73    17    69   1
    74    18    70   1
    75    18    71   1
    76    19    72   1
    77    20    73   1
    78    20    74   1
    79    21    75   1
    80    22    76   1
    81    22    77   1
    82    22    78   1
    83    23    79   1
    84    23    80   1
    85    24    81   1
    86    24    82   1
    87    25    83   1
    88    25    84   1
    89    28    85   1
    90    28    86   1
    91    31    87   1
    92    32    88   1
    93    33    89   1
    94    34    90   1
    95    35    91   1
    96    37    92   1
    97    38    93   1
    98    39    94   1
    99    40    95   1
   100    42    96   1
   101    43    97   1
   102    45    98   1
   103    46    99   1
@<TRIPOS>SUBSTRUCTURE
     1  L04      1

