@<TRIPOS>MOLECULE
1hfs_ligand_014
    99   103
SMALL
GAST_HUCK
****
This file was generated by PARSER (from files_GN.cpp)

@<TRIPOS>ATOM
      1 C1         30.6261   37.0102   23.1670 C.3         1 L04      -0.0384
      2 C2         32.0125   36.8493   23.8847 C.3         1 L04       0.0141
      3 C3         32.3388   37.9584   24.8100 C.2         1 L04       0.0380
      4 C4         40.4434   39.9150   22.4367 C.3         1 L04      -0.0625
      5 C5         37.9098   33.4848   29.2955 C.ar        1 L04      -0.0257
      6 C6         39.0935   32.7096   29.2528 C.ar        1 L04      -0.0571
      7 C7         34.5760   36.2093   23.4590 C.3         1 L04       0.0523
      8 C8         34.7577   34.6515   23.5992 C.3         1 L04      -0.0232
      9 C9         34.2119   33.9932   24.9074 C.3         1 L04      -0.0166
     10 C10        35.2043   33.8435   26.0110 C.ar        1 L04      -0.0424
     11 C11        35.9537   34.9518   26.4697 C.ar        1 L04      -0.0596
     12 C12        36.8741   34.8200   27.5192 C.ar        1 L04      -0.0610
     13 C13        37.0508   33.5820   28.1742 C.ar        1 L04      -0.0267
     14 C14        36.2997   32.4687   27.7260 C.ar        1 L04      -0.0610
     15 C15        35.3896   32.6002   26.6641 C.ar        1 L04      -0.0596
     16 C16        35.6793   36.7800   22.6914 C.2         1 L04       0.1816
     17 C17        39.9278   32.6175   30.3801 C.ar        1 L04      -0.0282
     18 C18        33.1875   36.6630   22.8651 C.3         1 L04      -0.0186
     19 C19        37.7941   38.0694   22.6948 C.3         1 L04       0.1369
     20 C20        38.0147   39.4890   23.3199 C.3         1 L04      -0.0096
     21 C21        39.0086   40.4786   22.6253 C.3         1 L04      -0.0425
     22 C22        38.4571   41.0497   21.2898 C.3         1 L04      -0.0625
     23 C23        29.4960   37.8396   23.8514 C.3         1 L04      -0.0495
     24 C24        29.1951   37.5239   25.3442 C.3         1 L04      -0.0323
     25 C25        28.1147   38.4399   25.9985 C.3         1 L04       0.0356
     26 C26        29.4912   40.5320   25.9297 C.2         1 L04       0.2046
     27 C27        38.8855   37.1244   22.9209 C.2         1 L04       0.2292
     28 C28        27.2852   40.7606   26.4572 C.3         1 L04       0.0703
     29 C29        29.2645   41.8703   25.9857 C.ar        1 L04       0.0535
     30 C30        40.2151   35.3025   21.9324 C.ar        1 L04       0.0663
     31 C31        40.3631   34.6097   20.7078 C.ar        1 L04      -0.0413
     32 C32        41.2891   33.5587   20.5693 C.ar        1 L04      -0.0755
     33 C33        42.0963   33.1850   21.6580 C.ar        1 L04      -0.0772
     34 C34        41.9816   33.8719   22.8781 C.ar        1 L04      -0.0755
     35 C35        41.0527   34.9205   23.0124 C.ar        1 L04      -0.0413
     36 C36        27.9343   42.0629   26.3392 C.ar        1 L04      -0.0003
     37 C37        30.1099   42.9667   25.7219 C.ar        1 L04      -0.0484
     38 C38        27.4143   43.3594   26.5055 C.ar        1 L04      -0.0524
     39 C39        28.2507   44.4669   26.2582 C.ar        1 L04      -0.0641
     40 C40        29.5896   44.2695   25.8536 C.ar        1 L04      -0.0630
     41 C41        39.5850   33.2891   31.5700 C.ar        1 L04       0.1322
     42 C42        38.4134   34.0637   31.6217 C.ar        1 L04      -0.0282
     43 C43        37.5839   34.1619   30.4957 C.ar        1 L04      -0.0571
     44 N1         28.3513   39.8687   26.0910 N.am        1 L04      -0.2613
     45 N18        36.6265   37.4896   23.2984 N.am        1 L04      -0.2649
     46 N29        39.2698   36.3007   21.9500 N.am        1 L04      -0.2320
     47 O1         30.6007   40.0412   25.7770 O.2         1 L04      -0.3882
     48 O4         32.6867   39.1798   24.3484 O.co2       1 L04      -0.5687
     49 O5         32.4712   37.6882   26.1294 O.co2       1 L04      -0.5687
     50 O17        35.7401   36.5434   21.4930 O.2         1 L04      -0.3966
     51 O28        39.3206   37.0340   24.0605 O.2         1 L04      -0.3823
     52 F1         40.3346   33.1835   32.6300 F           1 L04      -0.1835
     53 H1         30.7907   37.4678   22.1863 H           1 L04       0.0286
     54 H2         30.2292   36.0047   22.9857 H           1 L04       0.0286
     55 H3         31.9285   35.9351   24.4799 H           1 L04       0.0467
     56 H4         41.1259   40.7161   22.1426 H           1 L04       0.0232
     57 H5         40.4615   39.1485   21.6593 H           1 L04       0.0232
     58 H6         40.8099   39.4819   23.3696 H           1 L04       0.0232
     59 H7         39.3560   32.2147   28.3957 H           1 L04       0.0606
     60 H8         34.6423   36.6308   24.4596 H           1 L04       0.0541
     61 H9         35.8164   34.3846   23.5167 H           1 L04       0.0315
     62 H10        34.2698   34.1758   22.7433 H           1 L04       0.0315
     63 H11        33.8286   33.0061   24.6319 H           1 L04       0.0430
     64 H12        33.3624   34.5512   25.2991 H           1 L04       0.0430
     65 H13        35.8290   35.8752   26.0587 H           1 L04       0.0559
     66 H14        37.4048   35.6468   27.8117 H           1 L04       0.0604
     67 H15        36.3867   31.5628   28.1952 H           1 L04       0.0604
     68 H16        34.8507   31.7779   26.3778 H           1 L04       0.0559
     69 H17        40.7825   32.0578   30.3347 H           1 L04       0.0604
     70 H18        33.2986   37.6196   22.3457 H           1 L04       0.0313
     71 H19        32.8791   35.9511   22.1000 H           1 L04       0.0313
     72 H20        37.6279   38.2090   21.6216 H           1 L04       0.0805
     73 H21        38.3239   39.3712   24.3629 H           1 L04       0.0315
     74 H22        37.0425   39.9932   23.3572 H           1 L04       0.0315
     75 H23        39.1057   41.3357   23.3004 H           1 L04       0.0298
     76 H24        37.4704   41.4929   21.4439 H           1 L04       0.0232
     77 H25        38.3753   40.2684   20.5317 H           1 L04       0.0232
     78 H26        39.1198   41.8324   20.9110 H           1 L04       0.0232
     79 H27        28.5736   37.6767   23.2823 H           1 L04       0.0267
     80 H28        29.7520   38.8960   23.7501 H           1 L04       0.0267
     81 H29        30.1131   37.5878   25.9270 H           1 L04       0.0285
     82 H30        28.8515   36.4861   25.4122 H           1 L04       0.0285
     83 H31        27.9303   38.0732   27.0136 H           1 L04       0.0523
     84 H32        27.1951   38.2761   25.4291 H           1 L04       0.0523
     85 H33        26.9588   40.5758   27.4833 H           1 L04       0.0699
     86 H34        26.4435   40.6799   25.7659 H           1 L04       0.0699
     87 H35        39.7903   34.8618   19.8981 H           1 L04       0.0502
     88 H36        41.3781   33.0639   19.6786 H           1 L04       0.0577
     89 H37        42.7672   32.4194   21.5631 H           1 L04       0.0487
     90 H38        42.5770   33.6128   23.6685 H           1 L04       0.0577
     91 H39        41.0155   35.3965   23.9109 H           1 L04       0.0502
     92 H40        31.0762   42.8237   25.4201 H           1 L04       0.0651
     93 H41        26.4454   43.4966   26.7833 H           1 L04       0.0569
     94 H42        27.8855   45.4165   26.3616 H           1 L04       0.0635
     95 H43        30.1825   45.0786   25.6557 H           1 L04       0.0572
     96 H44        38.1568   34.5532   32.4796 H           1 L04       0.0604
     97 H45        36.7241   34.7127   30.5654 H           1 L04       0.0606
     98 H46        36.5650   37.5672   24.2684 H           1 L04       0.1883
     99 H47        38.7768   36.3936   21.1180 H           1 L04       0.2257
@<TRIPOS>BOND
     1     1    23   1
     2     1     2   1
     3     2    18   1
     4     2     3   1
     5     3    49  ar
     6     3    48  ar
     7    18     7   1
     8     7    16   1
     9     7     8   1
    10     8     9   1
    11     9    10   1
    12    10    15  ar
    13    10    11  ar
    14    11    12  ar
    15    12    13  ar
    16    13    14  ar
    17    13     5   1
    18     5    43  ar
    19     5     6  ar
    20     6    17  ar
    21    17    41  ar
    22    41    42  ar
    23    42    43  ar
    24    14    15  ar
    25    16    50   2
    26    16    45  am
    27    45    19   1
    28    19    27   1
    29    19    20   1
    30    20    21   1
    31    21     4   1
    32    21    22   1
    33    27    51   2
    34    27    46  am
    35    46    30   1
    36    30    35  ar
    37    30    31  ar
    38    31    32  ar
    39    32    33  ar
    40    33    34  ar
    41    34    35  ar
    42    23    24   1
    43    24    25   1
    44    25    44   1
    45    44    28   1
    46    44    26  am
    47    26    47   2
    48    26    29   1
    49    29    37  ar
    50    29    36  ar
    51    36    28   1
    52    36    38  ar
    53    38    39  ar
    54    39    40  ar
    55    40    37  ar
    56    41    52   1
    57     1    53   1
    58     1    54   1
    59     2    55   1
    60     4    56   1
    61     4    57   1
    62     4    58   1
    63     6    59   1
    64     7    60   1
    65     8    61   1
    66     8    62   1
    67     9    63   1
    68     9    64   1
    69    11    65   1
    70    12    66   1
    71    14    67   1
    72    15    68   1
    73    17    69   1
    74    18    70   1
    75    18    71   1
    76    19    72   1
    77    20    73   1
    78    20    74   1
    79    21    75   1
    80    22    76   1
    81    22    77   1
    82    22    78   1
    83    23    79   1
    84    23    80   1
    85    24    81   1
    86    24    82   1
    87    25    83   1
    88    25    84   1
    89    28    85   1
    90    28    86   1
    91    31    87   1
    92    32    88   1
    93    33    89   1
    94    34    90   1
    95    35    91   1
    96    37    92   1
    97    38    93   1
    98    39    94   1
    99    40    95   1
   100    42    96   1
   101    43    97   1
   102    45    98   1
   103    46    99   1
@<TRIPOS>SUBSTRUCTURE
     1  L04      1

