@<TRIPOS>MOLECULE
1hfs_ligand_086
    99   103
SMALL
GAST_HUCK
****
This file was generated by PARSER (from files_GN.cpp)

@<TRIPOS>ATOM
      1 C1         29.6204   41.6203   28.5061 C.3         1 L04      -0.0384
      2 C2         28.9072   41.0312   27.2429 C.3         1 L04       0.0141
      3 C3         27.4685   40.8202   27.5079 C.2         1 L04       0.0380
      4 C4         32.6915   37.7277   21.8202 C.3         1 L04      -0.0625
      5 C5         37.0528   41.1407   21.6726 C.ar        1 L04      -0.0257
      6 C6         37.3161   39.9643   20.9243 C.ar        1 L04      -0.0571
      7 C7         30.3313   39.8080   25.3554 C.3         1 L04       0.0523
      8 C8         31.6081   40.7367   25.4216 C.3         1 L04      -0.0232
      9 C9         31.8644   41.7059   24.2127 C.3         1 L04      -0.0166
     10 C10        33.2066   41.5928   23.5575 C.ar        1 L04      -0.0424
     11 C11        33.3462   41.6443   22.1498 C.ar        1 L04      -0.0596
     12 C12        34.6033   41.5165   21.5353 C.ar        1 L04      -0.0610
     13 C13        35.7809   41.3339   22.3057 C.ar        1 L04      -0.0267
     14 C14        35.6462   41.3270   23.7158 C.ar        1 L04      -0.0610
     15 C15        34.3863   41.4684   24.3269 C.ar        1 L04      -0.0596
     16 C16        30.6276   38.4636   24.8582 C.2         1 L04       0.1816
     17 C17        38.5498   39.7674   20.2782 C.ar        1 L04      -0.0282
     18 C18        29.6003   39.6981   26.7489 C.3         1 L04      -0.0186
     19 C19        32.0409   36.4124   25.1744 C.3         1 L04       0.1369
     20 C20        32.1954   35.9741   23.6731 C.3         1 L04      -0.0096
     21 C21        33.2699   36.6089   22.7290 C.3         1 L04      -0.0425
     22 C22        34.5804   37.0654   23.4259 C.3         1 L04      -0.0625
     23 C23        28.9208   42.7716   29.3013 C.3         1 L04      -0.0495
     24 C24        29.6427   44.1539   29.3500 C.3         1 L04      -0.0323
     25 C25        29.6518   44.9755   28.0340 C.3         1 L04       0.0356
     26 C26        27.7508   45.1793   26.4787 C.2         1 L04       0.2046
     27 C27        33.2470   36.0997   25.9584 C.2         1 L04       0.2292
     28 C28        27.6063   46.4209   28.3974 C.3         1 L04       0.0703
     29 C29        26.5985   45.8888   26.3713 C.ar        1 L04       0.0535
     30 C30        34.8503   34.3140   26.5265 C.ar        1 L04       0.0663
     31 C31        35.0688   32.9469   26.2377 C.ar        1 L04      -0.0413
     32 C32        36.2786   32.3214   26.5891 C.ar        1 L04      -0.0755
     33 C33        37.2712   33.0408   27.2820 C.ar        1 L04      -0.0772
     34 C34        37.0482   34.3895   27.6171 C.ar        1 L04      -0.0755
     35 C35        35.8554   35.0222   27.2372 C.ar        1 L04      -0.0413
     36 C36        26.4694   46.6706   27.5170 C.ar        1 L04      -0.0003
     37 C37        25.6320   45.9445   25.3489 C.ar        1 L04      -0.0484
     38 C38        25.3731   47.5406   27.6816 C.ar        1 L04      -0.0524
     39 C39        24.4003   47.6038   26.6618 C.ar        1 L04      -0.0641
     40 C40        24.5276   46.8100   25.5031 C.ar        1 L04      -0.0630
     41 C41        39.5548   40.7474   20.3616 C.ar        1 L04       0.1322
     42 C42        39.3232   41.9123   21.1113 C.ar        1 L04      -0.0282
     43 C43        38.0901   42.1087   21.7652 C.ar        1 L04      -0.0571
     44 N1         28.3612   45.4643   27.6289 N.am        1 L04      -0.2613
     45 N18        31.6392   37.7823   25.3636 N.am        1 L04      -0.2649
     46 N29        33.6813   34.8378   26.0313 N.am        1 L04      -0.2320
     47 O1         28.1769   44.4382   25.6039 O.2         1 L04      -0.3882
     48 O4         26.5321   41.5903   26.9127 O.co2       1 L04      -0.5687
     49 O5         27.0614   39.9822   28.4843 O.co2       1 L04      -0.5687
     50 O17        29.8776   37.9356   24.0310 O.2         1 L04      -0.3966
     51 O28        33.8537   37.0045   26.5276 O.2         1 L04      -0.3823
     52 F1         40.6882   40.5753   19.7450 F           1 L04      -0.1835
     53 H1         29.7679   40.7861   29.1989 H           1 L04       0.0286
     54 H2         30.6198   41.9622   28.2179 H           1 L04       0.0286
     55 H3         28.9910   41.7808   26.4533 H           1 L04       0.0467
     56 H4         33.4019   37.9741   21.0241 H           1 L04       0.0232
     57 H5         32.4830   38.6262   22.3984 H           1 L04       0.0232
     58 H6         31.7628   37.4030   21.3428 H           1 L04       0.0232
     59 H7         36.6048   39.2288   20.8488 H           1 L04       0.0606
     60 H8         29.6072   40.2723   24.6761 H           1 L04       0.0541
     61 H9         32.4939   40.1233   25.5843 H           1 L04       0.0315
     62 H10        31.5488   41.3608   26.3166 H           1 L04       0.0315
     63 H11        31.7783   42.7341   24.5806 H           1 L04       0.0430
     64 H12        31.0678   41.5834   23.4737 H           1 L04       0.0430
     65 H13        32.5210   41.7520   21.5534 H           1 L04       0.0559
     66 H14        34.6582   41.5544   20.5135 H           1 L04       0.0604
     67 H15        36.4668   41.1923   24.3104 H           1 L04       0.0604
     68 H16        34.3330   41.4459   25.3463 H           1 L04       0.0559
     69 H17        38.7116   38.9152   19.7399 H           1 L04       0.0604
     70 H18        28.8559   38.8922   26.7109 H           1 L04       0.0313
     71 H19        30.3401   39.3570   27.4790 H           1 L04       0.0313
     72 H20        31.2394   35.8036   25.6001 H           1 L04       0.0805
     73 H21        31.2163   36.0955   23.2083 H           1 L04       0.0315
     74 H22        32.3730   34.8926   23.6569 H           1 L04       0.0315
     75 H23        33.5673   35.8206   22.0362 H           1 L04       0.0298
     76 H24        34.9851   36.2558   24.0373 H           1 L04       0.0232
     77 H25        34.4120   37.9383   24.0624 H           1 L04       0.0232
     78 H26        35.3346   37.3288   22.6769 H           1 L04       0.0232
     79 H27        28.8731   42.4411   30.3443 H           1 L04       0.0267
     80 H28        27.8877   42.9032   28.9737 H           1 L04       0.0267
     81 H29        30.6765   44.0099   29.6753 H           1 L04       0.0285
     82 H30        29.1618   44.7705   30.1203 H           1 L04       0.0285
     83 H31        30.1252   44.3659   27.2576 H           1 L04       0.0523
     84 H32        30.2963   45.8481   28.1827 H           1 L04       0.0523
     85 H33        28.1771   47.3388   28.5679 H           1 L04       0.0699
     86 H34        27.2638   46.0022   29.3489 H           1 L04       0.0699
     87 H35        34.3552   32.4047   25.7508 H           1 L04       0.0502
     88 H36        36.4378   31.3433   26.3317 H           1 L04       0.0577
     89 H37        38.1475   32.5787   27.5447 H           1 L04       0.0487
     90 H38        37.7675   34.9065   28.1288 H           1 L04       0.0577
     91 H39        35.7408   36.0089   27.4875 H           1 L04       0.0502
     92 H40        25.7308   45.3768   24.5066 H           1 L04       0.0651
     93 H41        25.2870   48.1156   28.5182 H           1 L04       0.0569
     94 H42        23.5979   48.2293   26.7659 H           1 L04       0.0635
     95 H43        23.8179   46.8635   24.7680 H           1 L04       0.0572
     96 H44        40.0539   42.6261   21.1751 H           1 L04       0.0604
     97 H45        37.9446   42.9755   22.2900 H           1 L04       0.0606
     98 H46        32.1538   38.2619   26.0296 H           1 L04       0.1883
     99 H47        33.1128   34.1927   25.5875 H           1 L04       0.2257
@<TRIPOS>BOND
     1     1    23   1
     2     1     2   1
     3     2    18   1
     4     2     3   1
     5     3    49  ar
     6     3    48  ar
     7    18     7   1
     8     7    16   1
     9     7     8   1
    10     8     9   1
    11     9    10   1
    12    10    15  ar
    13    10    11  ar
    14    11    12  ar
    15    12    13  ar
    16    13    14  ar
    17    13     5   1
    18     5    43  ar
    19     5     6  ar
    20     6    17  ar
    21    17    41  ar
    22    41    42  ar
    23    42    43  ar
    24    14    15  ar
    25    16    50   2
    26    16    45  am
    27    45    19   1
    28    19    27   1
    29    19    20   1
    30    20    21   1
    31    21     4   1
    32    21    22   1
    33    27    51   2
    34    27    46  am
    35    46    30   1
    36    30    35  ar
    37    30    31  ar
    38    31    32  ar
    39    32    33  ar
    40    33    34  ar
    41    34    35  ar
    42    23    24   1
    43    24    25   1
    44    25    44   1
    45    44    28   1
    46    44    26  am
    47    26    47   2
    48    26    29   1
    49    29    37  ar
    50    29    36  ar
    51    36    28   1
    52    36    38  ar
    53    38    39  ar
    54    39    40  ar
    55    40    37  ar
    56    41    52   1
    57     1    53   1
    58     1    54   1
    59     2    55   1
    60     4    56   1
    61     4    57   1
    62     4    58   1
    63     6    59   1
    64     7    60   1
    65     8    61   1
    66     8    62   1
    67     9    63   1
    68     9    64   1
    69    11    65   1
    70    12    66   1
    71    14    67   1
    72    15    68   1
    73    17    69   1
    74    18    70   1
    75    18    71   1
    76    19    72   1
    77    20    73   1
    78    20    74   1
    79    21    75   1
    80    22    76   1
    81    22    77   1
    82    22    78   1
    83    23    79   1
    84    23    80   1
    85    24    81   1
    86    24    82   1
    87    25    83   1
    88    25    84   1
    89    28    85   1
    90    28    86   1
    91    31    87   1
    92    32    88   1
    93    33    89   1
    94    34    90   1
    95    35    91   1
    96    37    92   1
    97    38    93   1
    98    39    94   1
    99    40    95   1
   100    42    96   1
   101    43    97   1
   102    45    98   1
   103    46    99   1
@<TRIPOS>SUBSTRUCTURE
     1  L04      1

