@<TRIPOS>MOLECULE
1hfs_ligand_028
    99   103
SMALL
GAST_HUCK
****
This file was generated by PARSER (from files_GN.cpp)

@<TRIPOS>ATOM
      1 C1         34.5284   36.3360   23.7072 C.3         1 L04      -0.0384
      2 C2         33.4692   37.4064   24.1537 C.3         1 L04       0.0141
      3 C3         32.8320   37.0251   25.4482 C.2         1 L04       0.0380
      4 C4         25.3307   38.7395   19.7344 C.3         1 L04      -0.0625
      5 C5         37.5798   40.6975   21.2586 C.ar        1 L04      -0.0257
      6 C6         38.0075   39.5263   20.5868 C.ar        1 L04      -0.0571
      7 C7         31.2636   38.6892   23.1744 C.3         1 L04       0.0523
      8 C8         31.5408   40.0950   23.8132 C.3         1 L04      -0.0232
      9 C9         32.0948   41.2344   22.9071 C.3         1 L04      -0.0166
     10 C10        33.5096   41.0707   22.4795 C.ar        1 L04      -0.0424
     11 C11        33.8450   40.9196   21.1140 C.ar        1 L04      -0.0596
     12 C12        35.1864   40.7917   20.7120 C.ar        1 L04      -0.0610
     13 C13        36.2297   40.8338   21.6650 C.ar        1 L04      -0.0267
     14 C14        35.9001   40.9996   23.0294 C.ar        1 L04      -0.0610
     15 C15        34.5566   41.1188   23.4306 C.ar        1 L04      -0.0596
     16 C16        30.3922   38.8040   22.0006 C.2         1 L04       0.1816
     17 C17        39.3474   39.3830   20.1859 C.ar        1 L04      -0.0282
     18 C18        32.5251   37.7805   22.9480 C.3         1 L04      -0.0186
     19 C19        28.0679   39.1462   21.1993 C.3         1 L04       0.1369
     20 C20        26.6734   39.4255   21.8787 C.3         1 L04      -0.0096
     21 C21        25.4070   38.7162   21.2846 C.3         1 L04      -0.0425
     22 C22        25.2126   37.2707   21.8273 C.3         1 L04      -0.0625
     23 C23        34.0282   34.8881   23.3721 C.3         1 L04      -0.0495
     24 C24        34.2632   33.7963   24.4489 C.3         1 L04      -0.0323
     25 C25        35.7400   33.3147   24.5953 C.3         1 L04       0.0356
     26 C26        36.8094   34.0626   26.6802 C.2         1 L04       0.2046
     27 C27        28.3858   40.1273   20.1653 C.2         1 L04       0.2292
     28 C28        35.7355   32.0416   26.7804 C.3         1 L04       0.0703
     29 C29        36.9359   33.6468   27.9654 C.ar        1 L04       0.0535
     30 C30        28.6491   40.5222   17.7477 C.ar        1 L04       0.0663
     31 C31        28.8684   39.7986   16.5493 C.ar        1 L04      -0.0413
     32 C32        29.0233   40.4600   15.3132 C.ar        1 L04      -0.0755
     33 C33        28.9559   41.8624   15.2559 C.ar        1 L04      -0.0772
     34 C34        28.7408   42.6010   16.4285 C.ar        1 L04      -0.0755
     35 C35        28.5857   41.9390   17.6644 C.ar        1 L04      -0.0413
     36 C36        36.3060   32.4101   28.0749 C.ar        1 L04      -0.0003
     37 C37        37.5452   34.2503   29.0817 C.ar        1 L04      -0.0484
     38 C38        36.2810   31.7184   29.3001 C.ar        1 L04      -0.0524
     39 C39        36.8967   32.3066   30.4236 C.ar        1 L04      -0.0641
     40 C40        37.5200   33.5707   30.3178 C.ar        1 L04      -0.0630
     41 C41        40.2733   40.4125   20.4377 C.ar        1 L04       0.1322
     42 C42        39.8598   41.5802   21.1034 C.ar        1 L04      -0.0282
     43 C43        38.5219   41.7196   21.5202 C.ar        1 L04      -0.0571
     44 N1         36.1230   33.1711   25.9777 N.am        1 L04      -0.2613
     45 N18        29.1070   39.1079   22.1911 N.am        1 L04      -0.2649
     46 N29        28.4350   39.7775   18.8787 N.am        1 L04      -0.2320
     47 O1         37.2526   35.1257   26.2613 O.2         1 L04      -0.3882
     48 O4         31.7284   37.6667   25.9079 O.co2       1 L04      -0.5687
     49 O5         33.6434   36.6055   26.4490 O.co2       1 L04      -0.5687
     50 O17        30.8302   38.6158   20.8694 O.2         1 L04      -0.3966
     51 O28        28.6902   41.2606   20.5259 O.2         1 L04      -0.3823
     52 F1         41.5142   40.2810   20.0577 F           1 L04      -0.1835
     53 H1         35.0281   36.7289   22.8101 H           1 L04       0.0286
     54 H2         35.3101   36.2762   24.4709 H           1 L04       0.0286
     55 H3         34.0430   38.3170   24.3771 H           1 L04       0.0467
     56 H4         24.3435   38.3925   19.4085 H           1 L04       0.0232
     57 H5         26.0871   38.0844   19.2988 H           1 L04       0.0232
     58 H6         25.4785   39.7604   19.3636 H           1 L04       0.0232
     59 H7         37.3477   38.7653   20.3976 H           1 L04       0.0606
     60 H8         30.6604   38.1255   23.8997 H           1 L04       0.0541
     61 H9         32.2006   39.9750   24.6741 H           1 L04       0.0315
     62 H10        30.5863   40.4503   24.2190 H           1 L04       0.0315
     63 H11        32.0292   42.1752   23.4627 H           1 L04       0.0430
     64 H12        31.4408   41.3502   22.0415 H           1 L04       0.0430
     65 H13        33.1126   40.8890   20.4006 H           1 L04       0.0559
     66 H14        35.3964   40.6832   19.7158 H           1 L04       0.0604
     67 H15        36.6346   41.0249   23.7423 H           1 L04       0.0604
     68 H16        34.3470   41.2406   24.4244 H           1 L04       0.0559
     69 H17        39.6476   38.5277   19.7150 H           1 L04       0.0604
     70 H18        32.1464   36.8565   22.5004 H           1 L04       0.0313
     71 H19        33.1485   38.2544   22.1750 H           1 L04       0.0313
     72 H20        28.0252   38.1437   20.7626 H           1 L04       0.0805
     73 H21        26.4839   40.5045   21.8861 H           1 L04       0.0315
     74 H22        26.7321   39.1429   22.9368 H           1 L04       0.0315
     75 H23        24.5418   39.2890   21.6443 H           1 L04       0.0298
     76 H24        25.1063   37.2945   22.9136 H           1 L04       0.0232
     77 H25        26.0674   36.6410   21.5715 H           1 L04       0.0232
     78 H26        24.3069   36.8233   21.4092 H           1 L04       0.0232
     79 H27        34.5156   34.5511   22.4530 H           1 L04       0.0267
     80 H28        32.9555   34.9097   23.1694 H           1 L04       0.0267
     81 H29        33.6519   32.9268   24.1880 H           1 L04       0.0285
     82 H30        33.8839   34.1633   25.4038 H           1 L04       0.0285
     83 H31        36.4210   34.0030   24.0828 H           1 L04       0.0523
     84 H32        35.8635   32.3501   24.0922 H           1 L04       0.0523
     85 H33        36.1804   31.1152   26.4093 H           1 L04       0.0699
     86 H34        34.6487   31.9413   26.8515 H           1 L04       0.0699
     87 H35        28.9184   38.7763   16.5663 H           1 L04       0.0502
     88 H36        29.1766   39.9210   14.4581 H           1 L04       0.0577
     89 H37        29.0534   42.3445   14.3562 H           1 L04       0.0487
     90 H38        28.6766   43.6231   16.3896 H           1 L04       0.0577
     91 H39        28.3942   42.5072   18.4848 H           1 L04       0.0502
     92 H40        37.9925   35.1654   29.0034 H           1 L04       0.0651
     93 H41        35.8218   30.8101   29.3761 H           1 L04       0.0569
     94 H42        36.8877   31.8209   31.3236 H           1 L04       0.0635
     95 H43        37.9531   33.9973   31.1414 H           1 L04       0.0572
     96 H44        40.5280   42.3315   21.2872 H           1 L04       0.0604
     97 H45        38.2377   42.5799   21.9980 H           1 L04       0.0606
     98 H46        28.8406   39.2714   23.1129 H           1 L04       0.1883
     99 H47        28.2921   38.8322   18.7088 H           1 L04       0.2257
@<TRIPOS>BOND
     1     1    23   1
     2     1     2   1
     3     2    18   1
     4     2     3   1
     5     3    49  ar
     6     3    48  ar
     7    18     7   1
     8     7    16   1
     9     7     8   1
    10     8     9   1
    11     9    10   1
    12    10    15  ar
    13    10    11  ar
    14    11    12  ar
    15    12    13  ar
    16    13    14  ar
    17    13     5   1
    18     5    43  ar
    19     5     6  ar
    20     6    17  ar
    21    17    41  ar
    22    41    42  ar
    23    42    43  ar
    24    14    15  ar
    25    16    50   2
    26    16    45  am
    27    45    19   1
    28    19    27   1
    29    19    20   1
    30    20    21   1
    31    21     4   1
    32    21    22   1
    33    27    51   2
    34    27    46  am
    35    46    30   1
    36    30    35  ar
    37    30    31  ar
    38    31    32  ar
    39    32    33  ar
    40    33    34  ar
    41    34    35  ar
    42    23    24   1
    43    24    25   1
    44    25    44   1
    45    44    28   1
    46    44    26  am
    47    26    47   2
    48    26    29   1
    49    29    37  ar
    50    29    36  ar
    51    36    28   1
    52    36    38  ar
    53    38    39  ar
    54    39    40  ar
    55    40    37  ar
    56    41    52   1
    57     1    53   1
    58     1    54   1
    59     2    55   1
    60     4    56   1
    61     4    57   1
    62     4    58   1
    63     6    59   1
    64     7    60   1
    65     8    61   1
    66     8    62   1
    67     9    63   1
    68     9    64   1
    69    11    65   1
    70    12    66   1
    71    14    67   1
    72    15    68   1
    73    17    69   1
    74    18    70   1
    75    18    71   1
    76    19    72   1
    77    20    73   1
    78    20    74   1
    79    21    75   1
    80    22    76   1
    81    22    77   1
    82    22    78   1
    83    23    79   1
    84    23    80   1
    85    24    81   1
    86    24    82   1
    87    25    83   1
    88    25    84   1
    89    28    85   1
    90    28    86   1
    91    31    87   1
    92    32    88   1
    93    33    89   1
    94    34    90   1
    95    35    91   1
    96    37    92   1
    97    38    93   1
    98    39    94   1
    99    40    95   1
   100    42    96   1
   101    43    97   1
   102    45    98   1
   103    46    99   1
@<TRIPOS>SUBSTRUCTURE
     1  L04      1

