@<TRIPOS>MOLECULE
1hfs_ligand_083
    99   103
SMALL
GAST_HUCK
****
This file was generated by PARSER (from files_GN.cpp)

@<TRIPOS>ATOM
      1 C1         32.7181   36.0753   23.8498 C.3         1 L04      -0.0384
      2 C2         33.0484   37.2038   22.7937 C.3         1 L04       0.0141
      3 C3         34.4831   37.3152   22.4422 C.2         1 L04       0.0380
      4 C4         29.1308   41.7449   29.0858 C.3         1 L04      -0.0625
      5 C5         38.6299   40.1999   21.4253 C.ar        1 L04      -0.0257
      6 C6         38.7898   38.8539   21.0127 C.ar        1 L04      -0.0571
      7 C7         32.5999   39.3783   24.3724 C.3         1 L04       0.0523
      8 C8         32.7857   40.9461   24.1991 C.3         1 L04      -0.0232
      9 C9         34.1207   41.5390   24.7427 C.3         1 L04      -0.0166
     10 C10        35.3167   41.2302   23.9114 C.ar        1 L04      -0.0424
     11 C11        36.3589   40.4117   24.4033 C.ar        1 L04      -0.0596
     12 C12        37.4528   40.0777   23.5884 C.ar        1 L04      -0.0610
     13 C13        37.5526   40.5727   22.2671 C.ar        1 L04      -0.0267
     14 C14        36.5339   41.4370   21.7981 C.ar        1 L04      -0.0610
     15 C15        35.4325   41.7607   22.6055 C.ar        1 L04      -0.0596
     16 C16        31.5203   39.0553   25.3169 C.2         1 L04       0.1816
     17 C17        39.8476   38.4872   20.1631 C.ar        1 L04      -0.0282
     18 C18        32.3846   38.6157   23.0060 C.3         1 L04      -0.0186
     19 C19        29.0987   39.2791   25.8794 C.3         1 L04       0.1369
     20 C20        29.1052   39.8651   27.3387 C.3         1 L04      -0.0096
     21 C21        29.0429   41.4130   27.5665 C.3         1 L04      -0.0425
     22 C22        30.1267   42.2089   26.7899 C.3         1 L04      -0.0625
     23 C23        33.8612   35.4048   24.6860 C.3         1 L04      -0.0495
     24 C24        34.9110   34.5983   23.8521 C.3         1 L04      -0.0323
     25 C25        35.4070   33.2592   24.4685 C.3         1 L04       0.0356
     26 C26        36.4690   34.1294   26.5422 C.2         1 L04       0.2046
     27 C27        27.9112   39.5826   25.0752 C.2         1 L04       0.2292
     28 C28        35.3503   32.1380   26.7196 C.3         1 L04       0.0703
     29 C29        36.6454   33.7179   27.8321 C.ar        1 L04       0.0535
     30 C30        26.8176   39.2965   22.9138 C.ar        1 L04       0.0663
     31 C31        25.4502   39.1117   23.2409 C.ar        1 L04      -0.0413
     32 C32        24.4569   39.1934   22.2518 C.ar        1 L04      -0.0755
     33 C33        24.8094   39.4680   20.9187 C.ar        1 L04      -0.0772
     34 C34        26.1609   39.6421   20.5747 C.ar        1 L04      -0.0755
     35 C35        27.1586   39.5504   21.5646 C.ar        1 L04      -0.0413
     36 C36        35.9996   32.4920   27.9790 C.ar        1 L04      -0.0003
     37 C37        37.3598   34.2812   28.9060 C.ar        1 L04      -0.0484
     38 C38        36.0780   31.7682   29.1817 C.ar        1 L04      -0.0524
     39 C39        36.8040   32.3196   30.2561 C.ar        1 L04      -0.0641
     40 C40        37.4364   33.5731   30.1191 C.ar        1 L04      -0.0630
     41 C41        40.7785   39.4534   19.7355 C.ar        1 L04       0.1322
     42 C42        40.6330   40.7909   20.1435 C.ar        1 L04      -0.0282
     43 C43        39.5614   41.1644   20.9769 C.ar        1 L04      -0.0571
     44 N1         35.7154   33.2528   25.8855 N.am        1 L04      -0.2613
     45 N18        30.3063   39.5843   25.1469 N.am        1 L04      -0.2649
     46 N29        27.8479   39.1798   23.8060 N.am        1 L04      -0.2320
     47 O1         36.9842   35.1351   26.0710 O.2         1 L04      -0.3882
     48 O4         35.3261   38.1199   23.1457 O.co2       1 L04      -0.5687
     49 O5         35.0066   36.5797   21.4336 O.co2       1 L04      -0.5687
     50 O17        31.7169   38.2200   26.1946 O.2         1 L04      -0.3966
     51 O28        26.9593   40.1712   25.5804 O.2         1 L04      -0.3823
     52 F1         41.7621   39.1133   18.9510 F           1 L04      -0.1835
     53 H1         31.9840   36.4621   24.5592 H           1 L04       0.0286
     54 H2         32.2035   35.2564   23.3354 H           1 L04       0.0286
     55 H3         32.5812   36.8550   21.8642 H           1 L04       0.0467
     56 H4         28.9876   42.8168   29.2511 H           1 L04       0.0232
     57 H5         30.1050   41.4571   29.4905 H           1 L04       0.0232
     58 H6         28.3531   41.2148   29.6421 H           1 L04       0.0232
     59 H7         38.1191   38.1378   21.3085 H           1 L04       0.0606
     60 H8         33.5317   38.9973   24.7975 H           1 L04       0.0541
     61 H9         31.9908   41.4851   24.7223 H           1 L04       0.0315
     62 H10        32.6729   41.2458   23.1539 H           1 L04       0.0315
     63 H11        34.2549   41.1923   25.7730 H           1 L04       0.0430
     64 H12        34.0280   42.6302   24.7921 H           1 L04       0.0430
     65 H13        36.3131   40.0353   25.3539 H           1 L04       0.0559
     66 H14        38.1740   39.4516   23.9616 H           1 L04       0.0604
     67 H15        36.5742   41.8146   20.8489 H           1 L04       0.0604
     68 H16        34.7099   42.3850   22.2329 H           1 L04       0.0559
     69 H17        39.9382   37.5167   19.8531 H           1 L04       0.0604
     70 H18        31.3052   38.5119   22.8235 H           1 L04       0.0313
     71 H19        32.7559   39.2422   22.1837 H           1 L04       0.0313
     72 H20        29.0791   38.1887   25.9905 H           1 L04       0.0805
     73 H21        29.9957   39.4882   27.8472 H           1 L04       0.0315
     74 H22        28.2450   39.4286   27.8596 H           1 L04       0.0315
     75 H23        28.0718   41.7836   27.2273 H           1 L04       0.0298
     76 H24        29.9435   42.1413   25.7173 H           1 L04       0.0232
     77 H25        31.1227   41.8226   27.0152 H           1 L04       0.0232
     78 H26        30.0960   43.2677   27.0594 H           1 L04       0.0232
     79 H27        33.3748   34.7226   25.3943 H           1 L04       0.0267
     80 H28        34.3749   36.1762   25.2731 H           1 L04       0.0267
     81 H29        35.7865   35.2346   23.6887 H           1 L04       0.0285
     82 H30        34.4939   34.3642   22.8590 H           1 L04       0.0285
     83 H31        36.3108   32.9555   23.9260 H           1 L04       0.0523
     84 H32        34.6404   32.5038   24.2567 H           1 L04       0.0523
     85 H33        35.7588   31.1978   26.3294 H           1 L04       0.0699
     86 H34        34.2636   32.0678   26.8338 H           1 L04       0.0699
     87 H35        25.1725   38.8703   24.1968 H           1 L04       0.0502
     88 H36        23.4769   39.0484   22.4981 H           1 L04       0.0577
     89 H37        24.0888   39.5250   20.1975 H           1 L04       0.0487
     90 H38        26.4220   39.8288   19.6045 H           1 L04       0.0577
     91 H39        28.1390   39.6641   21.2965 H           1 L04       0.0502
     92 H40        37.8225   35.1839   28.8005 H           1 L04       0.0651
     93 H41        35.6258   30.8569   29.2698 H           1 L04       0.0569
     94 H42        36.8823   31.7996   31.1324 H           1 L04       0.0635
     95 H43        37.9644   33.9614   30.9016 H           1 L04       0.0572
     96 H44        41.3031   41.4970   19.8329 H           1 L04       0.0604
     97 H45        39.4712   42.1449   21.2586 H           1 L04       0.0606
     98 H46        30.2126   40.2102   24.4116 H           1 L04       0.1883
     99 H47        28.6682   38.8041   23.4429 H           1 L04       0.2257
@<TRIPOS>BOND
     1     1    23   1
     2     1     2   1
     3     2    18   1
     4     2     3   1
     5     3    49  ar
     6     3    48  ar
     7    18     7   1
     8     7    16   1
     9     7     8   1
    10     8     9   1
    11     9    10   1
    12    10    15  ar
    13    10    11  ar
    14    11    12  ar
    15    12    13  ar
    16    13    14  ar
    17    13     5   1
    18     5    43  ar
    19     5     6  ar
    20     6    17  ar
    21    17    41  ar
    22    41    42  ar
    23    42    43  ar
    24    14    15  ar
    25    16    50   2
    26    16    45  am
    27    45    19   1
    28    19    27   1
    29    19    20   1
    30    20    21   1
    31    21     4   1
    32    21    22   1
    33    27    51   2
    34    27    46  am
    35    46    30   1
    36    30    35  ar
    37    30    31  ar
    38    31    32  ar
    39    32    33  ar
    40    33    34  ar
    41    34    35  ar
    42    23    24   1
    43    24    25   1
    44    25    44   1
    45    44    28   1
    46    44    26  am
    47    26    47   2
    48    26    29   1
    49    29    37  ar
    50    29    36  ar
    51    36    28   1
    52    36    38  ar
    53    38    39  ar
    54    39    40  ar
    55    40    37  ar
    56    41    52   1
    57     1    53   1
    58     1    54   1
    59     2    55   1
    60     4    56   1
    61     4    57   1
    62     4    58   1
    63     6    59   1
    64     7    60   1
    65     8    61   1
    66     8    62   1
    67     9    63   1
    68     9    64   1
    69    11    65   1
    70    12    66   1
    71    14    67   1
    72    15    68   1
    73    17    69   1
    74    18    70   1
    75    18    71   1
    76    19    72   1
    77    20    73   1
    78    20    74   1
    79    21    75   1
    80    22    76   1
    81    22    77   1
    82    22    78   1
    83    23    79   1
    84    23    80   1
    85    24    81   1
    86    24    82   1
    87    25    83   1
    88    25    84   1
    89    28    85   1
    90    28    86   1
    91    31    87   1
    92    32    88   1
    93    33    89   1
    94    34    90   1
    95    35    91   1
    96    37    92   1
    97    38    93   1
    98    39    94   1
    99    40    95   1
   100    42    96   1
   101    43    97   1
   102    45    98   1
   103    46    99   1
@<TRIPOS>SUBSTRUCTURE
     1  L04      1

