@<TRIPOS>MOLECULE
1hfs_ligand_041
    99   103
SMALL
GAST_HUCK
****
This file was generated by PARSER (from files_GN.cpp)

@<TRIPOS>ATOM
      1 C1         33.1355   41.2144   24.8870 C.3         1 L04      -0.0384
      2 C2         32.0223   40.1174   24.9595 C.3         1 L04       0.0141
      3 C3         32.5293   38.7183   24.9754 C.2         1 L04       0.0380
      4 C4         25.4676   37.4976   20.6298 C.3         1 L04      -0.0625
      5 C5         28.8364   46.0273   28.4931 C.ar        1 L04      -0.0257
      6 C6         30.0769   46.2637   29.1360 C.ar        1 L04      -0.0571
      7 C7         29.5520   39.6665   24.0359 C.3         1 L04       0.0523
      8 C8         28.4760   40.7067   24.5372 C.3         1 L04      -0.0232
      9 C9         28.3388   40.8106   26.0951 C.3         1 L04      -0.0166
     10 C10        28.3670   42.2102   26.6173 C.ar        1 L04      -0.0424
     11 C11        29.3342   43.1257   26.1516 C.ar        1 L04      -0.0596
     12 C12        29.4700   44.3982   26.7529 C.ar        1 L04      -0.0610
     13 C13        28.6223   44.8008   27.8108 C.ar        1 L04      -0.0267
     14 C14        27.6042   43.9089   28.2198 C.ar        1 L04      -0.0610
     15 C15        27.4825   42.6331   27.6420 C.ar        1 L04      -0.0596
     16 C16        29.1156   38.9584   22.8189 C.2         1 L04       0.1816
     17 C17        30.2926   47.4363   29.8808 C.ar        1 L04      -0.0282
     18 C18        30.9739   40.3031   23.8086 C.3         1 L04      -0.0186
     19 C19        28.4180   39.0467   20.4351 C.3         1 L04       0.1369
     20 C20        27.0030   39.5016   19.9608 C.3         1 L04      -0.0096
     21 C21        25.7681   39.0176   20.7885 C.3         1 L04      -0.0425
     22 C22        25.8276   39.4049   22.2928 C.3         1 L04      -0.0625
     23 C23        34.5001   40.9515   25.6002 C.3         1 L04      -0.0495
     24 C24        35.6415   40.3569   24.7231 C.3         1 L04      -0.0323
     25 C25        35.8234   41.0524   23.3370 C.3         1 L04       0.0356
     26 C26        38.0045   41.6088   22.3539 C.2         1 L04       0.2046
     27 C27        29.4277   39.3879   19.4329 C.2         1 L04       0.2292
     28 C28        37.3262   39.4346   22.1207 C.3         1 L04       0.0703
     29 C29        38.9386   41.0209   21.5599 C.ar        1 L04       0.0535
     30 C30        30.5570   38.6105   17.3917 C.ar        1 L04       0.0663
     31 C31        30.9591   37.3915   16.7922 C.ar        1 L04      -0.0413
     32 C32        31.7704   37.3819   15.6425 C.ar        1 L04      -0.0755
     33 C33        32.1739   38.5931   15.0551 C.ar        1 L04      -0.0772
     34 C34        31.7573   39.8154   15.6182 C.ar        1 L04      -0.0755
     35 C35        30.9603   39.8214   16.7773 C.ar        1 L04      -0.0413
     36 C36        38.5688   39.6882   21.3909 C.ar        1 L04      -0.0003
     37 C37        40.0861   41.5382   20.9217 C.ar        1 L04      -0.0484
     38 C38        39.3285   38.8205   20.5860 C.ar        1 L04      -0.0524
     39 C39        40.4754   39.3274   19.9393 C.ar        1 L04      -0.0641
     40 C40        40.8499   40.6792   20.1069 C.ar        1 L04      -0.0630
     41 C41        29.2723   48.4027   29.9908 C.ar        1 L04       0.1322
     42 C42        28.0367   48.1832   29.3524 C.ar        1 L04      -0.0282
     43 C43        27.8169   47.0046   28.6152 C.ar        1 L04      -0.0571
     44 N1         37.0597   40.7328   22.6673 N.am        1 L04      -0.2613
     45 N18        28.7789   39.6205   21.7147 N.am        1 L04      -0.2649
     46 N29        29.7473   38.4995   18.4931 N.am        1 L04      -0.2320
     47 O1         38.0273   42.7940   22.6575 O.2         1 L04      -0.3882
     48 O4         32.2829   37.8972   26.0315 O.co2       1 L04      -0.5687
     49 O5         33.1553   38.1895   23.8939 O.co2       1 L04      -0.5687
     50 O17        29.1092   37.7287   22.8449 O.2         1 L04      -0.3966
     51 O28        29.8927   40.5174   19.4383 O.2         1 L04      -0.3823
     52 F1         29.4725   49.4807   30.6947 F           1 L04      -0.1835
     53 H1         33.3066   41.4889   23.8522 H           1 L04       0.0286
     54 H2         32.7092   42.1185   25.3520 H           1 L04       0.0286
     55 H3         31.5125   40.2732   25.9193 H           1 L04       0.0467
     56 H4         24.4755   37.2695   21.0203 H           1 L04       0.0232
     57 H5         26.1867   36.8931   21.1856 H           1 L04       0.0232
     58 H6         25.5003   37.2022   19.5795 H           1 L04       0.0232
     59 H7         30.8211   45.5588   29.1020 H           1 L04       0.0606
     60 H8         29.6577   38.9053   24.8226 H           1 L04       0.0541
     61 H9         27.4816   40.4378   24.1225 H           1 L04       0.0315
     62 H10        28.7300   41.7033   24.1367 H           1 L04       0.0315
     63 H11        29.1486   40.2718   26.6054 H           1 L04       0.0430
     64 H12        27.4004   40.3115   26.3822 H           1 L04       0.0430
     65 H13        29.9273   42.8498   25.3621 H           1 L04       0.0559
     66 H14        30.2017   45.0184   26.4064 H           1 L04       0.0604
     67 H15        26.9700   44.1699   28.9766 H           1 L04       0.0604
     68 H16        26.7640   41.9950   27.9990 H           1 L04       0.0559
     69 H17        31.1846   47.5760   30.3594 H           1 L04       0.0604
     70 H18        31.4348   39.9058   22.8906 H           1 L04       0.0313
     71 H19        30.8501   41.3748   23.6134 H           1 L04       0.0313
     72 H20        28.3926   37.9614   20.5091 H           1 L04       0.0805
     73 H21        26.8471   39.1299   18.9410 H           1 L04       0.0315
     74 H22        26.9799   40.5947   19.9041 H           1 L04       0.0315
     75 H23        24.9064   39.5458   20.3602 H           1 L04       0.0298
     76 H24        26.2960   40.3798   22.4364 H           1 L04       0.0232
     77 H25        26.3956   38.6679   22.8639 H           1 L04       0.0232
     78 H26        24.8168   39.4393   22.7032 H           1 L04       0.0232
     79 H27        34.3374   40.2892   26.4548 H           1 L04       0.0267
     80 H28        34.8683   41.9014   26.0095 H           1 L04       0.0267
     81 H29        35.4642   39.2842   24.5696 H           1 L04       0.0285
     82 H30        36.5790   40.4504   25.2807 H           1 L04       0.0285
     83 H31        35.7186   42.1288   23.4827 H           1 L04       0.0523
     84 H32        35.0115   40.7363   22.6790 H           1 L04       0.0523
     85 H33        36.5431   39.1055   21.4304 H           1 L04       0.0699
     86 H34        37.4807   38.6902   22.9067 H           1 L04       0.0699
     87 H35        30.6645   36.4950   17.1933 H           1 L04       0.0502
     88 H36        32.0594   36.4942   15.2232 H           1 L04       0.0577
     89 H37        32.7491   38.5889   14.2097 H           1 L04       0.0487
     90 H38        32.0234   40.7000   15.1775 H           1 L04       0.0577
     91 H39        30.6504   40.7236   17.1381 H           1 L04       0.0502
     92 H40        40.3476   42.5162   21.0365 H           1 L04       0.0651
     93 H41        39.0482   37.8509   20.4644 H           1 L04       0.0569
     94 H42        41.0306   38.7156   19.3377 H           1 L04       0.0635
     95 H43        41.6772   41.0421   19.6277 H           1 L04       0.0572
     96 H44        27.2941   48.8794   29.4345 H           1 L04       0.0604
     97 H45        26.9039   46.8596   28.1736 H           1 L04       0.0606
     98 H46        28.8048   40.5959   21.7698 H           1 L04       0.1883
     99 H47        29.3374   37.6251   18.5891 H           1 L04       0.2257
@<TRIPOS>BOND
     1     1    23   1
     2     1     2   1
     3     2    18   1
     4     2     3   1
     5     3    49  ar
     6     3    48  ar
     7    18     7   1
     8     7    16   1
     9     7     8   1
    10     8     9   1
    11     9    10   1
    12    10    15  ar
    13    10    11  ar
    14    11    12  ar
    15    12    13  ar
    16    13    14  ar
    17    13     5   1
    18     5    43  ar
    19     5     6  ar
    20     6    17  ar
    21    17    41  ar
    22    41    42  ar
    23    42    43  ar
    24    14    15  ar
    25    16    50   2
    26    16    45  am
    27    45    19   1
    28    19    27   1
    29    19    20   1
    30    20    21   1
    31    21     4   1
    32    21    22   1
    33    27    51   2
    34    27    46  am
    35    46    30   1
    36    30    35  ar
    37    30    31  ar
    38    31    32  ar
    39    32    33  ar
    40    33    34  ar
    41    34    35  ar
    42    23    24   1
    43    24    25   1
    44    25    44   1
    45    44    28   1
    46    44    26  am
    47    26    47   2
    48    26    29   1
    49    29    37  ar
    50    29    36  ar
    51    36    28   1
    52    36    38  ar
    53    38    39  ar
    54    39    40  ar
    55    40    37  ar
    56    41    52   1
    57     1    53   1
    58     1    54   1
    59     2    55   1
    60     4    56   1
    61     4    57   1
    62     4    58   1
    63     6    59   1
    64     7    60   1
    65     8    61   1
    66     8    62   1
    67     9    63   1
    68     9    64   1
    69    11    65   1
    70    12    66   1
    71    14    67   1
    72    15    68   1
    73    17    69   1
    74    18    70   1
    75    18    71   1
    76    19    72   1
    77    20    73   1
    78    20    74   1
    79    21    75   1
    80    22    76   1
    81    22    77   1
    82    22    78   1
    83    23    79   1
    84    23    80   1
    85    24    81   1
    86    24    82   1
    87    25    83   1
    88    25    84   1
    89    28    85   1
    90    28    86   1
    91    31    87   1
    92    32    88   1
    93    33    89   1
    94    34    90   1
    95    35    91   1
    96    37    92   1
    97    38    93   1
    98    39    94   1
    99    40    95   1
   100    42    96   1
   101    43    97   1
   102    45    98   1
   103    46    99   1
@<TRIPOS>SUBSTRUCTURE
     1  L04      1

