@<TRIPOS>MOLECULE
1hfs_ligand_091
    99   103
SMALL
GAST_HUCK
****
This file was generated by PARSER (from files_GN.cpp)

@<TRIPOS>ATOM
      1 C1         31.8587   38.2492   23.3162 C.3         1 L04      -0.0384
      2 C2         32.4234   36.9126   23.8947 C.3         1 L04       0.0141
      3 C3         32.3164   36.9013   25.3802 C.2         1 L04       0.0380
      4 C4         38.2362   42.1846   21.9991 C.3         1 L04      -0.0625
      5 C5         38.0705   31.4205   29.6032 C.ar        1 L04      -0.0257
      6 C6         37.4219   30.3718   30.3119 C.ar        1 L04      -0.0571
      7 C7         35.1227   36.6348   24.2362 C.3         1 L04       0.0523
      8 C8         35.4059   35.2653   24.9979 C.3         1 L04      -0.0232
      9 C9         34.9653   35.2068   26.4929 C.3         1 L04      -0.0166
     10 C10        35.7600   34.2280   27.2886 C.ar        1 L04      -0.0424
     11 C11        36.8885   34.6503   28.0275 C.ar        1 L04      -0.0596
     12 C12        37.6510   33.7295   28.7713 C.ar        1 L04      -0.0610
     13 C13        37.3228   32.3499   28.7998 C.ar        1 L04      -0.0267
     14 C14        36.2128   31.9317   28.0216 C.ar        1 L04      -0.0610
     15 C15        35.4433   32.8522   27.2816 C.ar        1 L04      -0.0596
     16 C16        36.3482   37.2162   23.6345 C.2         1 L04       0.1816
     17 C17        38.1424   29.4766   31.1278 C.ar        1 L04      -0.0282
     18 C18        33.8443   36.5317   23.3087 C.3         1 L04      -0.0186
     19 C19        37.3993   38.9685   22.1536 C.3         1 L04       0.1369
     20 C20        38.0174   39.9261   23.2429 C.3         1 L04      -0.0096
     21 C21        37.5914   41.4320   23.1938 C.3         1 L04      -0.0425
     22 C22        36.0508   41.6393   23.2441 C.3         1 L04      -0.0625
     23 C23        30.4412   38.6617   23.8185 C.3         1 L04      -0.0495
     24 C24        29.7259   39.7705   22.9971 C.3         1 L04      -0.0323
     25 C25        30.5350   41.0892   22.7869 C.3         1 L04       0.0356
     26 C26        30.5840   41.2496   20.3394 C.2         1 L04       0.2046
     27 C27        38.3830   38.1971   21.3844 C.2         1 L04       0.2292
     28 C28        32.6340   41.2306   21.3568 C.3         1 L04       0.0703
     29 C29        31.4912   41.3545   19.3341 C.ar        1 L04       0.0535
     30 C30        39.8415   36.2096   21.4507 C.ar        1 L04       0.0663
     31 C31        40.4619   36.2060   20.1767 C.ar        1 L04      -0.0413
     32 C32        41.1918   35.0869   19.7334 C.ar        1 L04      -0.0755
     33 C33        41.3236   33.9576   20.5595 C.ar        1 L04      -0.0772
     34 C34        40.7432   33.9558   21.8404 C.ar        1 L04      -0.0755
     35 C35        40.0157   35.0776   22.2824 C.ar        1 L04      -0.0413
     36 C36        32.7588   41.3621   19.9068 C.ar        1 L04      -0.0003
     37 C37        31.3229   41.4614   17.9418 C.ar        1 L04      -0.0484
     38 C38        33.9105   41.4896   19.1061 C.ar        1 L04      -0.0524
     39 C39        33.7554   41.6014   17.7064 C.ar        1 L04      -0.0641
     40 C40        32.4667   41.5848   17.1276 C.ar        1 L04      -0.0630
     41 C41        39.5358   29.6094   31.2596 C.ar        1 L04       0.1322
     42 C42        40.2033   30.6382   30.5756 C.ar        1 L04      -0.0282
     43 C43        39.4805   31.5263   29.7548 C.ar        1 L04      -0.0571
     44 N1         31.2053   41.1596   21.5112 N.am        1 L04      -0.2613
     45 N18        36.3218   38.1435   22.6672 N.am        1 L04      -0.2649
     46 N29        39.0556   37.2075   21.9637 N.am        1 L04      -0.2320
     47 O1         29.3735   41.2908   20.1640 O.2         1 L04      -0.3882
     48 O4         31.3903   36.1311   25.9993 O.co2       1 L04      -0.5687
     49 O5         32.8537   37.8857   26.1344 O.co2       1 L04      -0.5687
     50 O17        37.3799   37.1150   24.2910 O.2         1 L04      -0.3966
     51 O28        38.5146   38.4394   20.1900 O.2         1 L04      -0.3823
     52 F1         40.2057   28.7798   32.0188 F           1 L04      -0.1835
     53 H1         32.5619   39.0528   23.5581 H           1 L04       0.0286
     54 H2         31.8073   38.1587   22.2286 H           1 L04       0.0286
     55 H3         31.7336   36.1402   23.5355 H           1 L04       0.0467
     56 H4         37.9476   43.2377   22.0138 H           1 L04       0.0232
     57 H5         37.9262   41.7537   21.0469 H           1 L04       0.0232
     58 H6         39.3253   42.1309   22.0652 H           1 L04       0.0232
     59 H7         36.4086   30.2627   30.2655 H           1 L04       0.0606
     60 H8         34.8849   37.3940   24.9864 H           1 L04       0.0541
     61 H9         36.4705   35.0146   24.9599 H           1 L04       0.0315
     62 H10        34.9247   34.4259   24.4842 H           1 L04       0.0315
     63 H11        33.9074   34.9425   26.5422 H           1 L04       0.0430
     64 H12        35.0606   36.1965   26.9469 H           1 L04       0.0430
     65 H13        37.1654   35.6358   28.0277 H           1 L04       0.0559
     66 H14        38.4413   34.0901   29.3100 H           1 L04       0.0604
     67 H15        35.9550   30.9434   27.9723 H           1 L04       0.0604
     68 H16        34.6494   32.5109   26.7347 H           1 L04       0.0559
     69 H17        37.6454   28.7398   31.6353 H           1 L04       0.0604
     70 H18        33.9879   37.1202   22.3971 H           1 L04       0.0313
     71 H19        33.7801   35.5097   22.9159 H           1 L04       0.0313
     72 H20        36.8941   39.6129   21.4302 H           1 L04       0.0805
     73 H21        39.1117   39.8886   23.2033 H           1 L04       0.0315
     74 H22        37.7511   39.5706   24.2407 H           1 L04       0.0315
     75 H23        37.9928   41.8991   24.1002 H           1 L04       0.0298
     76 H24        35.6116   41.0542   24.0554 H           1 L04       0.0232
     77 H25        35.5812   41.3448   22.3056 H           1 L04       0.0232
     78 H26        35.8181   42.6920   23.4182 H           1 L04       0.0232
     79 H27        30.5118   39.0040   24.8520 H           1 L04       0.0267
     80 H28        29.7941   37.7804   23.8111 H           1 L04       0.0267
     81 H29        28.7999   40.0222   23.5249 H           1 L04       0.0285
     82 H30        29.4256   39.3513   22.0345 H           1 L04       0.0285
     83 H31        31.2486   41.2134   23.6061 H           1 L04       0.0523
     84 H32        29.8528   41.9442   22.8535 H           1 L04       0.0523
     85 H33        33.1332   40.3214   21.6893 H           1 L04       0.0699
     86 H34        33.0457   42.1023   21.8682 H           1 L04       0.0699
     87 H35        40.3931   37.0107   19.5567 H           1 L04       0.0502
     88 H36        41.6259   35.0954   18.8078 H           1 L04       0.0577
     89 H37        41.8472   33.1430   20.2320 H           1 L04       0.0487
     90 H38        40.8472   33.1372   22.4464 H           1 L04       0.0577
     91 H39        39.5941   35.0472   23.2151 H           1 L04       0.0502
     92 H40        30.3887   41.4509   17.5244 H           1 L04       0.0651
     93 H41        34.8412   41.4916   19.5280 H           1 L04       0.0569
     94 H42        34.5793   41.6874   17.1074 H           1 L04       0.0635
     95 H43        32.3630   41.6643   16.1126 H           1 L04       0.0572
     96 H44        41.2176   30.7492   30.6773 H           1 L04       0.0604
     97 H45        40.0010   32.2521   29.2625 H           1 L04       0.0606
     98 H46        35.4611   38.3210   22.2558 H           1 L04       0.1883
     99 H47        38.8829   37.1118   22.9073 H           1 L04       0.2257
@<TRIPOS>BOND
     1     1    23   1
     2     1     2   1
     3     2    18   1
     4     2     3   1
     5     3    49  ar
     6     3    48  ar
     7    18     7   1
     8     7    16   1
     9     7     8   1
    10     8     9   1
    11     9    10   1
    12    10    15  ar
    13    10    11  ar
    14    11    12  ar
    15    12    13  ar
    16    13    14  ar
    17    13     5   1
    18     5    43  ar
    19     5     6  ar
    20     6    17  ar
    21    17    41  ar
    22    41    42  ar
    23    42    43  ar
    24    14    15  ar
    25    16    50   2
    26    16    45  am
    27    45    19   1
    28    19    27   1
    29    19    20   1
    30    20    21   1
    31    21     4   1
    32    21    22   1
    33    27    51   2
    34    27    46  am
    35    46    30   1
    36    30    35  ar
    37    30    31  ar
    38    31    32  ar
    39    32    33  ar
    40    33    34  ar
    41    34    35  ar
    42    23    24   1
    43    24    25   1
    44    25    44   1
    45    44    28   1
    46    44    26  am
    47    26    47   2
    48    26    29   1
    49    29    37  ar
    50    29    36  ar
    51    36    28   1
    52    36    38  ar
    53    38    39  ar
    54    39    40  ar
    55    40    37  ar
    56    41    52   1
    57     1    53   1
    58     1    54   1
    59     2    55   1
    60     4    56   1
    61     4    57   1
    62     4    58   1
    63     6    59   1
    64     7    60   1
    65     8    61   1
    66     8    62   1
    67     9    63   1
    68     9    64   1
    69    11    65   1
    70    12    66   1
    71    14    67   1
    72    15    68   1
    73    17    69   1
    74    18    70   1
    75    18    71   1
    76    19    72   1
    77    20    73   1
    78    20    74   1
    79    21    75   1
    80    22    76   1
    81    22    77   1
    82    22    78   1
    83    23    79   1
    84    23    80   1
    85    24    81   1
    86    24    82   1
    87    25    83   1
    88    25    84   1
    89    28    85   1
    90    28    86   1
    91    31    87   1
    92    32    88   1
    93    33    89   1
    94    34    90   1
    95    35    91   1
    96    37    92   1
    97    38    93   1
    98    39    94   1
    99    40    95   1
   100    42    96   1
   101    43    97   1
   102    45    98   1
   103    46    99   1
@<TRIPOS>SUBSTRUCTURE
     1  L04      1

