@<TRIPOS>MOLECULE
1hfs_ligand_076
    99   103
SMALL
GAST_HUCK
****
This file was generated by PARSER (from files_GN.cpp)

@<TRIPOS>ATOM
      1 C1         33.7010   40.3471   23.2093 C.3         1 L04      -0.0384
      2 C2         34.5205   39.3249   24.0710 C.3         1 L04       0.0141
      3 C3         34.2945   39.5299   25.5344 C.2         1 L04       0.0380
      4 C4         37.2135   33.5093   27.5934 C.3         1 L04      -0.0625
      5 C5         42.2568   40.1066   18.7035 C.ar        1 L04      -0.0257
      6 C6         42.3477   41.5129   18.8546 C.ar        1 L04      -0.0571
      7 C7         36.6334   37.9794   23.0236 C.3         1 L04       0.0523
      8 C8         38.1666   37.8059   23.3316 C.3         1 L04      -0.0232
      9 C9         38.9799   36.9681   22.2855 C.3         1 L04      -0.0166
     10 C10        39.8405   37.7763   21.3690 C.ar        1 L04      -0.0424
     11 C11        39.3151   38.9106   20.7098 C.ar        1 L04      -0.0596
     12 C12        40.1187   39.6839   19.8551 C.ar        1 L04      -0.0610
     13 C13        41.4608   39.3279   19.5927 C.ar        1 L04      -0.0267
     14 C14        41.9820   38.1803   20.2360 C.ar        1 L04      -0.0610
     15 C15        41.1885   37.4257   21.1175 C.ar        1 L04      -0.0596
     16 C16        35.9190   36.7369   23.3328 C.2         1 L04       0.1816
     17 C17        43.1033   42.2932   17.9621 C.ar        1 L04      -0.0282
     18 C18        36.0659   39.2538   23.7493 C.3         1 L04      -0.0186
     19 C19        34.7604   35.3536   25.0419 C.3         1 L04       0.1369
     20 C20        35.3082   34.7240   26.3667 C.3         1 L04      -0.0096
     21 C21        36.5724   33.8128   26.2093 C.3         1 L04      -0.0425
     22 C22        36.2578   32.4814   25.4665 C.3         1 L04      -0.0625
     23 C23        32.1501   40.2812   23.4676 C.3         1 L04      -0.0495
     24 C24        31.5041   41.6480   23.8235 C.3         1 L04      -0.0323
     25 C25        30.0097   41.5620   24.2776 C.3         1 L04       0.0356
     26 C26        29.8571   41.4128   26.7323 C.2         1 L04       0.2046
     27 C27        33.3986   35.8802   25.1890 C.2         1 L04       0.2292
     28 C28        29.6180   43.5106   25.8375 C.3         1 L04       0.0703
     29 C29        29.7098   42.2499   27.7941 C.ar        1 L04       0.0535
     30 C30        31.3535   36.4736   24.0081 C.ar        1 L04       0.0663
     31 C31        30.3252   36.2754   24.9638 C.ar        1 L04      -0.0413
     32 C32        29.0472   36.8357   24.7802 C.ar        1 L04      -0.0755
     33 C33        28.7790   37.6059   23.6324 C.ar        1 L04      -0.0772
     34 C34        29.7860   37.8104   22.6753 C.ar        1 L04      -0.0755
     35 C35        31.0651   37.2507   22.8657 C.ar        1 L04      -0.0413
     36 C36        29.5646   43.5442   27.2990 C.ar        1 L04      -0.0003
     37 C37        29.6849   41.9995   29.1805 C.ar        1 L04      -0.0484
     38 C38        29.4095   44.6398   28.1718 C.ar        1 L04      -0.0524
     39 C39        29.3804   44.3995   29.5607 C.ar        1 L04      -0.0641
     40 C40        29.5135   43.0929   30.0648 C.ar        1 L04      -0.0630
     41 C41        43.7807   41.6778   16.8901 C.ar        1 L04       0.1322
     42 C42        43.7067   40.2850   16.7261 C.ar        1 L04      -0.0282
     43 C43        42.9537   39.5046   17.6257 C.ar        1 L04      -0.0571
     44 N1         29.8111   42.1064   25.5972 N.am        1 L04      -0.2613
     45 N18        35.6230   36.4180   24.5950 N.am        1 L04      -0.2649
     46 N29        32.6154   35.9531   24.1123 N.am        1 L04      -0.2320
     47 O1         30.0429   40.2076   26.8343 O.2         1 L04      -0.3882
     48 O4         34.2655   38.4489   26.3497 O.co2       1 L04      -0.5687
     49 O5         34.5632   40.7463   26.0973 O.co2       1 L04      -0.5687
     50 O17        35.5294   36.0244   22.4106 O.2         1 L04      -0.3966
     51 O28        33.0785   36.4146   26.2455 O.2         1 L04      -0.3823
     52 F1         44.4732   42.4036   16.0536 F           1 L04      -0.1835
     53 H1         34.0832   41.3592   23.3893 H           1 L04       0.0286
     54 H2         33.8759   40.1193   22.1517 H           1 L04       0.0286
     55 H3         34.0845   38.3535   23.8314 H           1 L04       0.0467
     56 H4         38.0662   32.8334   27.4892 H           1 L04       0.0232
     57 H5         36.4840   33.0443   28.2613 H           1 L04       0.0232
     58 H6         37.5737   34.4323   28.0550 H           1 L04       0.0232
     59 H7         41.8732   41.9833   19.6311 H           1 L04       0.0606
     60 H8         36.5326   38.1724   21.9505 H           1 L04       0.0541
     61 H9         38.2712   37.3367   24.3147 H           1 L04       0.0315
     62 H10        38.6322   38.7911   23.4293 H           1 L04       0.0315
     63 H11        38.3011   36.3712   21.6677 H           1 L04       0.0430
     64 H12        39.5950   36.2496   22.8396 H           1 L04       0.0430
     65 H13        38.3442   39.1927   20.8608 H           1 L04       0.0559
     66 H14        39.7018   40.5086   19.4119 H           1 L04       0.0604
     67 H15        42.9489   37.8953   20.0779 H           1 L04       0.0604
     68 H16        41.6016   36.6102   21.5774 H           1 L04       0.0559
     69 H17        43.1582   43.3068   18.0901 H           1 L04       0.0604
     70 H18        36.6203   39.3377   24.6876 H           1 L04       0.0313
     71 H19        36.3495   40.1328   23.1630 H           1 L04       0.0313
     72 H20        34.7275   34.5511   24.2967 H           1 L04       0.0805
     73 H21        34.5190   34.1314   26.8403 H           1 L04       0.0315
     74 H22        35.5455   35.5389   27.0560 H           1 L04       0.0315
     75 H23        37.3227   34.3556   25.6226 H           1 L04       0.0298
     76 H24        35.9256   32.6709   24.4452 H           1 L04       0.0232
     77 H25        35.4766   31.9253   25.9907 H           1 L04       0.0232
     78 H26        37.1493   31.8530   25.4080 H           1 L04       0.0232
     79 H27        31.9308   39.5884   24.2841 H           1 L04       0.0267
     80 H28        31.6403   39.8873   22.5819 H           1 L04       0.0267
     81 H29        31.5764   42.2955   22.9448 H           1 L04       0.0285
     82 H30        32.0988   42.1142   24.6157 H           1 L04       0.0285
     83 H31        29.6538   40.5256   24.2496 H           1 L04       0.0523
     84 H32        29.3762   42.1054   23.5690 H           1 L04       0.0523
     85 H33        28.6789   43.8642   25.4040 H           1 L04       0.0699
     86 H34        30.4553   44.1058   25.4652 H           1 L04       0.0699
     87 H35        30.4851   35.6892   25.7875 H           1 L04       0.0502
     88 H36        28.3116   36.6717   25.4680 H           1 L04       0.0577
     89 H37        27.8440   37.9989   23.4896 H           1 L04       0.0487
     90 H38        29.5931   38.3739   21.8447 H           1 L04       0.0577
     91 H39        31.7857   37.4157   22.1588 H           1 L04       0.0502
     92 H40        29.7919   41.0517   29.5455 H           1 L04       0.0651
     93 H41        29.3154   45.5867   27.8017 H           1 L04       0.0569
     94 H42        29.2646   45.1850   30.2074 H           1 L04       0.0635
     95 H43        29.4818   42.9283   31.0714 H           1 L04       0.0572
     96 H44        44.1923   39.8336   15.9475 H           1 L04       0.0604
     97 H45        42.9020   38.4947   17.4754 H           1 L04       0.0606
     98 H46        35.9216   37.0463   25.2730 H           1 L04       0.1883
     99 H47        33.0042   35.6498   23.2736 H           1 L04       0.2257
@<TRIPOS>BOND
     1     1    23   1
     2     1     2   1
     3     2    18   1
     4     2     3   1
     5     3    49  ar
     6     3    48  ar
     7    18     7   1
     8     7    16   1
     9     7     8   1
    10     8     9   1
    11     9    10   1
    12    10    15  ar
    13    10    11  ar
    14    11    12  ar
    15    12    13  ar
    16    13    14  ar
    17    13     5   1
    18     5    43  ar
    19     5     6  ar
    20     6    17  ar
    21    17    41  ar
    22    41    42  ar
    23    42    43  ar
    24    14    15  ar
    25    16    50   2
    26    16    45  am
    27    45    19   1
    28    19    27   1
    29    19    20   1
    30    20    21   1
    31    21     4   1
    32    21    22   1
    33    27    51   2
    34    27    46  am
    35    46    30   1
    36    30    35  ar
    37    30    31  ar
    38    31    32  ar
    39    32    33  ar
    40    33    34  ar
    41    34    35  ar
    42    23    24   1
    43    24    25   1
    44    25    44   1
    45    44    28   1
    46    44    26  am
    47    26    47   2
    48    26    29   1
    49    29    37  ar
    50    29    36  ar
    51    36    28   1
    52    36    38  ar
    53    38    39  ar
    54    39    40  ar
    55    40    37  ar
    56    41    52   1
    57     1    53   1
    58     1    54   1
    59     2    55   1
    60     4    56   1
    61     4    57   1
    62     4    58   1
    63     6    59   1
    64     7    60   1
    65     8    61   1
    66     8    62   1
    67     9    63   1
    68     9    64   1
    69    11    65   1
    70    12    66   1
    71    14    67   1
    72    15    68   1
    73    17    69   1
    74    18    70   1
    75    18    71   1
    76    19    72   1
    77    20    73   1
    78    20    74   1
    79    21    75   1
    80    22    76   1
    81    22    77   1
    82    22    78   1
    83    23    79   1
    84    23    80   1
    85    24    81   1
    86    24    82   1
    87    25    83   1
    88    25    84   1
    89    28    85   1
    90    28    86   1
    91    31    87   1
    92    32    88   1
    93    33    89   1
    94    34    90   1
    95    35    91   1
    96    37    92   1
    97    38    93   1
    98    39    94   1
    99    40    95   1
   100    42    96   1
   101    43    97   1
   102    45    98   1
   103    46    99   1
@<TRIPOS>SUBSTRUCTURE
     1  L04      1

