@<TRIPOS>MOLECULE
1hfs_ligand_046
    99   103
SMALL
GAST_HUCK
****
This file was generated by PARSER (from files_GN.cpp)

@<TRIPOS>ATOM
      1 C1         30.6119   41.4508   26.4301 C.3         1 L04      -0.0384
      2 C2         30.4149   40.7003   25.0683 C.3         1 L04       0.0141
      3 C3         29.3139   41.2904   24.2727 C.2         1 L04       0.0380
      4 C4         24.8658   37.3721   22.1920 C.3         1 L04      -0.0625
      5 C5         35.9314   33.5666   27.1227 C.ar        1 L04      -0.0257
      6 C6         37.1709   34.0453   27.6225 C.ar        1 L04      -0.0571
      7 C7         30.3204   38.3177   23.8869 C.3         1 L04       0.0523
      8 C8         31.0706   36.9444   24.0616 C.3         1 L04      -0.0232
      9 C9         32.6229   37.0562   23.8999 C.3         1 L04      -0.0166
     10 C10        33.4102   36.1343   24.7640 C.ar        1 L04      -0.0424
     11 C11        33.5615   34.7703   24.4298 C.ar        1 L04      -0.0596
     12 C12        34.3795   33.9255   25.2059 C.ar        1 L04      -0.0610
     13 C13        35.0689   34.4107   26.3464 C.ar        1 L04      -0.0267
     14 C14        34.8967   35.7770   26.6813 C.ar        1 L04      -0.0610
     15 C15        34.0799   36.6210   25.9107 C.ar        1 L04      -0.0596
     16 C16        28.9795   38.1567   23.3000 C.2         1 L04       0.1816
     17 C17        38.0210   33.2202   28.3812 C.ar        1 L04      -0.0282
     18 C18        30.2957   39.1449   25.2266 C.3         1 L04      -0.0186
     19 C19        27.4740   38.8754   21.4385 C.3         1 L04       0.1369
     20 C20        26.1695   39.6231   21.9247 C.3         1 L04      -0.0096
     21 C21        25.0735   38.8253   22.7150 C.3         1 L04      -0.0425
     22 C22        25.2587   38.8714   24.2540 C.3         1 L04      -0.0625
     23 C23        29.5278   41.1803   27.5137 C.3         1 L04      -0.0495
     24 C24        29.7009   41.9600   28.8455 C.3         1 L04      -0.0323
     25 C25        30.0014   43.4875   28.7161 C.3         1 L04       0.0356
     26 C26        29.1399   44.0100   30.9710 C.2         1 L04       0.2046
     27 C27        27.9684   39.2894   20.1109 C.2         1 L04       0.2292
     28 C28        28.7034   45.5608   29.3448 C.3         1 L04       0.0703
     29 C29        28.4060   44.9801   31.5809 C.ar        1 L04       0.0535
     30 C30        29.6009   39.0507   18.3416 C.ar        1 L04       0.0663
     31 C31        30.8750   39.6592   18.2882 C.ar        1 L04      -0.0413
     32 C32        31.4479   40.0050   17.0503 C.ar        1 L04      -0.0755
     33 C33        30.7571   39.7438   15.8534 C.ar        1 L04      -0.0772
     34 C34        29.5119   39.0966   15.8931 C.ar        1 L04      -0.0755
     35 C35        28.9410   38.7463   17.1279 C.ar        1 L04      -0.0413
     36 C36        28.1322   45.9612   30.6303 C.ar        1 L04      -0.0003
     37 C37        27.9294   45.1072   32.9002 C.ar        1 L04      -0.0484
     38 C38        27.4026   47.1161   30.9657 C.ar        1 L04      -0.0524
     39 C39        26.9346   47.2602   32.2875 C.ar        1 L04      -0.0641
     40 C40        27.1903   46.2581   33.2486 C.ar        1 L04      -0.0630
     41 C41        37.6523   31.8913   28.6535 C.ar        1 L04       0.1322
     42 C42        36.4276   31.3952   28.1691 C.ar        1 L04      -0.0282
     43 C43        35.5776   32.2238   27.4145 C.ar        1 L04      -0.0571
     44 N1         29.3079   44.2999   29.6828 N.am        1 L04      -0.2613
     45 N18        28.5412   39.0385   22.4032 N.am        1 L04      -0.2649
     46 N29        29.0721   38.7726   19.5708 N.am        1 L04      -0.2320
     47 O1         29.5534   43.0050   31.5353 O.2         1 L04      -0.3882
     48 O4         29.4225   42.5730   23.8592 O.co2       1 L04      -0.5687
     49 O5         28.0754   40.7508   24.3149 O.co2       1 L04      -0.5687
     50 O17        28.2969   37.1906   23.6108 O.2         1 L04      -0.3966
     51 O28        27.2736   40.0554   19.4593 O.2         1 L04      -0.3823
     52 F1         38.4432   31.1210   29.3496 F           1 L04      -0.1835
     53 H1         31.5877   41.1791   26.8375 H           1 L04       0.0286
     54 H2         30.6458   42.5277   26.2334 H           1 L04       0.0286
     55 H3         31.3362   40.8807   24.5010 H           1 L04       0.0467
     56 H4         23.9513   36.9446   22.6212 H           1 L04       0.0232
     57 H5         25.7130   36.7334   22.4620 H           1 L04       0.0232
     58 H6         24.7591   37.3684   21.1009 H           1 L04       0.0232
     59 H7         37.4818   35.0008   27.4279 H           1 L04       0.0606
     60 H8         30.9139   38.8752   23.1529 H           1 L04       0.0541
     61 H9         30.7122   36.2245   23.3166 H           1 L04       0.0315
     62 H10        30.8202   36.5317   25.0475 H           1 L04       0.0315
     63 H11        32.9270   38.0854   24.1015 H           1 L04       0.0430
     64 H12        32.8855   36.8695   22.8556 H           1 L04       0.0430
     65 H13        33.1022   34.3897   23.5977 H           1 L04       0.0559
     66 H14        34.4956   32.9549   24.9040 H           1 L04       0.0604
     67 H15        35.3665   36.1787   27.4984 H           1 L04       0.0604
     68 H16        33.9924   37.6022   26.1869 H           1 L04       0.0559
     69 H17        38.9092   33.5896   28.7311 H           1 L04       0.0604
     70 H18        29.4018   38.8986   25.8035 H           1 L04       0.0313
     71 H19        31.1460   38.8397   25.8459 H           1 L04       0.0313
     72 H20        27.2462   37.8144   21.3214 H           1 L04       0.0805
     73 H21        25.6335   40.0110   21.0578 H           1 L04       0.0315
     74 H22        26.4543   40.5071   22.5067 H           1 L04       0.0315
     75 H23        24.1236   39.3392   22.5303 H           1 L04       0.0298
     76 H24        25.2356   39.9052   24.5999 H           1 L04       0.0232
     77 H25        26.2026   38.4250   24.5553 H           1 L04       0.0232
     78 H26        24.4461   38.3365   24.7519 H           1 L04       0.0232
     79 H27        29.5323   40.1125   27.7564 H           1 L04       0.0267
     80 H28        28.5424   41.4230   27.1020 H           1 L04       0.0267
     81 H29        30.4956   41.4844   29.4265 H           1 L04       0.0285
     82 H30        28.7730   41.8150   29.4073 H           1 L04       0.0285
     83 H31        29.7451   43.8298   27.7101 H           1 L04       0.0523
     84 H32        31.0746   43.6519   28.8356 H           1 L04       0.0523
     85 H33        27.9186   45.4354   28.5924 H           1 L04       0.0699
     86 H34        29.4502   46.2854   29.0036 H           1 L04       0.0699
     87 H35        31.3797   39.8682   19.1483 H           1 L04       0.0502
     88 H36        32.3555   40.4705   17.0226 H           1 L04       0.0577
     89 H37        31.1715   40.0039   14.9552 H           1 L04       0.0487
     90 H38        29.0106   38.8974   15.0240 H           1 L04       0.0577
     91 H39        28.0492   38.2441   17.1293 H           1 L04       0.0502
     92 H40        28.1155   44.3802   33.5935 H           1 L04       0.0651
     93 H41        27.2164   47.8342   30.2635 H           1 L04       0.0569
     94 H42        26.4032   48.0919   32.5502 H           1 L04       0.0635
     95 H43        26.8412   46.3667   34.2017 H           1 L04       0.0572
     96 H44        36.1518   30.4305   28.3683 H           1 L04       0.0604
     97 H45        34.6871   31.8353   27.0936 H           1 L04       0.0606
     98 H46        29.1021   39.8208   22.2641 H           1 L04       0.1883
     99 H47        29.6090   38.2104   20.1515 H           1 L04       0.2257
@<TRIPOS>BOND
     1     1    23   1
     2     1     2   1
     3     2    18   1
     4     2     3   1
     5     3    49  ar
     6     3    48  ar
     7    18     7   1
     8     7    16   1
     9     7     8   1
    10     8     9   1
    11     9    10   1
    12    10    15  ar
    13    10    11  ar
    14    11    12  ar
    15    12    13  ar
    16    13    14  ar
    17    13     5   1
    18     5    43  ar
    19     5     6  ar
    20     6    17  ar
    21    17    41  ar
    22    41    42  ar
    23    42    43  ar
    24    14    15  ar
    25    16    50   2
    26    16    45  am
    27    45    19   1
    28    19    27   1
    29    19    20   1
    30    20    21   1
    31    21     4   1
    32    21    22   1
    33    27    51   2
    34    27    46  am
    35    46    30   1
    36    30    35  ar
    37    30    31  ar
    38    31    32  ar
    39    32    33  ar
    40    33    34  ar
    41    34    35  ar
    42    23    24   1
    43    24    25   1
    44    25    44   1
    45    44    28   1
    46    44    26  am
    47    26    47   2
    48    26    29   1
    49    29    37  ar
    50    29    36  ar
    51    36    28   1
    52    36    38  ar
    53    38    39  ar
    54    39    40  ar
    55    40    37  ar
    56    41    52   1
    57     1    53   1
    58     1    54   1
    59     2    55   1
    60     4    56   1
    61     4    57   1
    62     4    58   1
    63     6    59   1
    64     7    60   1
    65     8    61   1
    66     8    62   1
    67     9    63   1
    68     9    64   1
    69    11    65   1
    70    12    66   1
    71    14    67   1
    72    15    68   1
    73    17    69   1
    74    18    70   1
    75    18    71   1
    76    19    72   1
    77    20    73   1
    78    20    74   1
    79    21    75   1
    80    22    76   1
    81    22    77   1
    82    22    78   1
    83    23    79   1
    84    23    80   1
    85    24    81   1
    86    24    82   1
    87    25    83   1
    88    25    84   1
    89    28    85   1
    90    28    86   1
    91    31    87   1
    92    32    88   1
    93    33    89   1
    94    34    90   1
    95    35    91   1
    96    37    92   1
    97    38    93   1
    98    39    94   1
    99    40    95   1
   100    42    96   1
   101    43    97   1
   102    45    98   1
   103    46    99   1
@<TRIPOS>SUBSTRUCTURE
     1  L04      1

