@<TRIPOS>MOLECULE
1hfs_ligand_059
    99   103
SMALL
GAST_HUCK
****
This file was generated by PARSER (from files_GN.cpp)

@<TRIPOS>ATOM
      1 C1         30.7630   37.3284   22.8845 C.3         1 L04      -0.0384
      2 C2         31.3625   36.2601   23.8727 C.3         1 L04       0.0141
      3 C3         31.0547   36.5071   25.3058 C.2         1 L04       0.0380
      4 C4         38.7946   38.3795   23.7334 C.3         1 L04      -0.0625
      5 C5         37.6426   31.6922   29.2081 C.ar        1 L04      -0.0257
      6 C6         36.9810   30.6321   29.8835 C.ar        1 L04      -0.0571
      7 C7         34.0673   36.7109   23.9434 C.3         1 L04       0.0523
      8 C8         35.0833   35.9868   24.9058 C.3         1 L04      -0.0232
      9 C9         34.5445   35.6593   26.3306 C.3         1 L04      -0.0166
     10 C10        35.3731   34.6406   27.0410 C.ar        1 L04      -0.0424
     11 C11        34.9965   33.2772   27.0353 C.ar        1 L04      -0.0596
     12 C12        35.7505   32.3147   27.7301 C.ar        1 L04      -0.0610
     13 C13        36.9062   32.6754   28.4664 C.ar        1 L04      -0.0267
     14 C14        37.2968   34.0388   28.4415 C.ar        1 L04      -0.0610
     15 C15        36.5500   35.0020   27.7347 C.ar        1 L04      -0.0596
     16 C16        34.7988   37.2473   22.7769 C.2         1 L04       0.1816
     17 C17        37.7012   29.6483   30.5872 C.ar        1 L04      -0.0282
     18 C18        32.8317   35.7900   23.5807 C.3         1 L04      -0.0186
     19 C19        36.2714   39.0965   21.9392 C.3         1 L04       0.1369
     20 C20        37.5485   38.3297   21.4303 C.3         1 L04      -0.0096
     21 C21        38.5505   37.6127   22.4047 C.3         1 L04      -0.0425
     22 C22        38.2207   36.1108   22.6454 C.3         1 L04      -0.0625
     23 C23        30.5778   38.8089   23.3469 C.3         1 L04      -0.0495
     24 C24        29.4208   39.5701   22.6076 C.3         1 L04      -0.0323
     25 C25        28.1720   39.8825   23.4859 C.3         1 L04       0.0356
     26 C26        29.1161   41.7642   24.7629 C.2         1 L04       0.2046
     27 C27        35.4604   39.6705   20.8471 C.2         1 L04       0.2292
     28 C28        28.2246   40.0567   26.0092 C.3         1 L04       0.0703
     29 C29        29.4287   42.0506   26.0518 C.ar        1 L04       0.0535
     30 C30        33.4003   40.7584   20.1588 C.ar        1 L04       0.0663
     31 C31        33.8550   41.6759   19.1812 C.ar        1 L04      -0.0413
     32 C32        32.9463   42.3112   18.3123 C.ar        1 L04      -0.0755
     33 C33        31.5671   42.0513   18.4197 C.ar        1 L04      -0.0772
     34 C34        31.1009   41.1498   19.3962 C.ar        1 L04      -0.0755
     35 C35        32.0161   40.4990   20.2471 C.ar        1 L04      -0.0413
     36 C36        28.9065   41.0375   26.8521 C.ar        1 L04      -0.0003
     37 C37        30.1764   43.1042   26.6116 C.ar        1 L04      -0.0484
     38 C38        29.1051   41.0456   28.2454 C.ar        1 L04      -0.0524
     39 C39        29.8616   42.0908   28.8166 C.ar        1 L04      -0.0641
     40 C40        30.3939   43.1160   28.0036 C.ar        1 L04      -0.0630
     41 C41        39.1043   29.7173   30.6537 C.ar        1 L04       0.1322
     42 C42        39.7811   30.7691   30.0114 C.ar        1 L04      -0.0282
     43 C43        39.0581   31.7387   29.2909 C.ar        1 L04      -0.0571
     44 N1         28.4877   40.5935   24.6991 N.am        1 L04      -0.2613
     45 N18        35.4899   38.3768   22.9141 N.am        1 L04      -0.2649
     46 N29        34.2279   40.1320   21.0556 N.am        1 L04      -0.2320
     47 O1         29.4627   42.4618   23.8203 O.2         1 L04      -0.3882
     48 O4         29.7593   36.4274   25.6906 O.co2       1 L04      -0.5687
     49 O5         31.8235   37.3623   26.0209 O.co2       1 L04      -0.5687
     50 O17        34.8969   36.6032   21.7374 O.2         1 L04      -0.3966
     51 O28        35.9382   39.7576   19.7225 O.2         1 L04      -0.3823
     52 F1         39.7745   28.8129   31.3147 F           1 L04      -0.1835
     53 H1         31.3610   37.3458   21.9666 H           1 L04       0.0286
     54 H2         29.7709   36.9576   22.5941 H           1 L04       0.0286
     55 H3         30.7879   35.3462   23.6534 H           1 L04       0.0467
     56 H4         39.6153   37.9269   24.2946 H           1 L04       0.0232
     57 H5         37.8976   38.3658   24.3575 H           1 L04       0.0232
     58 H6         39.0628   39.4184   23.5177 H           1 L04       0.0232
     59 H7         35.9601   30.5702   29.8836 H           1 L04       0.0606
     60 H8         33.6843   37.5795   24.4851 H           1 L04       0.0541
     61 H9         35.9692   36.6135   25.0569 H           1 L04       0.0315
     62 H10        35.4075   35.0561   24.4237 H           1 L04       0.0315
     63 H11        33.5189   35.2919   26.2732 H           1 L04       0.0430
     64 H12        34.5069   36.5816   26.9199 H           1 L04       0.0430
     65 H13        34.1597   32.9744   26.5287 H           1 L04       0.0559
     66 H14        35.4420   31.3393   27.6861 H           1 L04       0.0604
     67 H15        38.1181   34.3549   28.9620 H           1 L04       0.0604
     68 H16        36.8624   35.9757   27.7434 H           1 L04       0.0559
     69 H17        37.2007   28.8878   31.0539 H           1 L04       0.0604
     70 H18        32.8652   35.5316   22.5227 H           1 L04       0.0313
     71 H19        32.9487   34.8224   24.0781 H           1 L04       0.0313
     72 H20        36.6392   39.9677   22.4864 H           1 L04       0.0805
     73 H21        38.1456   39.0737   20.8936 H           1 L04       0.0315
     74 H22        37.2285   37.6065   20.6786 H           1 L04       0.0315
     75 H23        39.5210   37.5980   21.8932 H           1 L04       0.0298
     76 H24        38.1640   35.5792   21.6921 H           1 L04       0.0232
     77 H25        37.2700   36.0025   23.1565 H           1 L04       0.0232
     78 H26        38.9983   35.6373   23.2501 H           1 L04       0.0232
     79 H27        31.5211   39.3445   23.1826 H           1 L04       0.0267
     80 H28        30.3907   38.8498   24.4172 H           1 L04       0.0267
     81 H29        29.0863   39.0140   21.7274 H           1 L04       0.0285
     82 H30        29.8092   40.5160   22.2274 H           1 L04       0.0285
     83 H31        27.6799   38.9316   23.7202 H           1 L04       0.0523
     84 H32        27.4615   40.4773   22.9037 H           1 L04       0.0523
     85 H33        28.6672   39.0661   26.1392 H           1 L04       0.0699
     86 H34        27.1525   40.0286   26.2261 H           1 L04       0.0699
     87 H35        34.8483   41.8930   19.1095 H           1 L04       0.0502
     88 H36        33.2852   42.9718   17.6110 H           1 L04       0.0577
     89 H37        30.9025   42.5247   17.8012 H           1 L04       0.0487
     90 H38        30.0992   40.9637   19.4871 H           1 L04       0.0577
     91 H39        31.6751   39.8076   20.9153 H           1 L04       0.0502
     92 H40        30.5692   43.8371   26.0153 H           1 L04       0.0651
     93 H41        28.7248   40.2969   28.8273 H           1 L04       0.0569
     94 H42        30.0276   42.1036   29.8254 H           1 L04       0.0635
     95 H43        30.9482   43.8653   28.4235 H           1 L04       0.0572
     96 H44        40.8005   30.8304   30.0637 H           1 L04       0.0604
     97 H45        39.5826   32.4733   28.8119 H           1 L04       0.0606
     98 H46        35.4468   38.7935   23.7911 H           1 L04       0.1883
     99 H47        33.8345   39.9246   21.9190 H           1 L04       0.2257
@<TRIPOS>BOND
     1     1    23   1
     2     1     2   1
     3     2    18   1
     4     2     3   1
     5     3    49  ar
     6     3    48  ar
     7    18     7   1
     8     7    16   1
     9     7     8   1
    10     8     9   1
    11     9    10   1
    12    10    15  ar
    13    10    11  ar
    14    11    12  ar
    15    12    13  ar
    16    13    14  ar
    17    13     5   1
    18     5    43  ar
    19     5     6  ar
    20     6    17  ar
    21    17    41  ar
    22    41    42  ar
    23    42    43  ar
    24    14    15  ar
    25    16    50   2
    26    16    45  am
    27    45    19   1
    28    19    27   1
    29    19    20   1
    30    20    21   1
    31    21     4   1
    32    21    22   1
    33    27    51   2
    34    27    46  am
    35    46    30   1
    36    30    35  ar
    37    30    31  ar
    38    31    32  ar
    39    32    33  ar
    40    33    34  ar
    41    34    35  ar
    42    23    24   1
    43    24    25   1
    44    25    44   1
    45    44    28   1
    46    44    26  am
    47    26    47   2
    48    26    29   1
    49    29    37  ar
    50    29    36  ar
    51    36    28   1
    52    36    38  ar
    53    38    39  ar
    54    39    40  ar
    55    40    37  ar
    56    41    52   1
    57     1    53   1
    58     1    54   1
    59     2    55   1
    60     4    56   1
    61     4    57   1
    62     4    58   1
    63     6    59   1
    64     7    60   1
    65     8    61   1
    66     8    62   1
    67     9    63   1
    68     9    64   1
    69    11    65   1
    70    12    66   1
    71    14    67   1
    72    15    68   1
    73    17    69   1
    74    18    70   1
    75    18    71   1
    76    19    72   1
    77    20    73   1
    78    20    74   1
    79    21    75   1
    80    22    76   1
    81    22    77   1
    82    22    78   1
    83    23    79   1
    84    23    80   1
    85    24    81   1
    86    24    82   1
    87    25    83   1
    88    25    84   1
    89    28    85   1
    90    28    86   1
    91    31    87   1
    92    32    88   1
    93    33    89   1
    94    34    90   1
    95    35    91   1
    96    37    92   1
    97    38    93   1
    98    39    94   1
    99    40    95   1
   100    42    96   1
   101    43    97   1
   102    45    98   1
   103    46    99   1
@<TRIPOS>SUBSTRUCTURE
     1  L04      1

