@<TRIPOS>MOLECULE
1hfs_ligand_047
    99   103
SMALL
GAST_HUCK
****
This file was generated by PARSER (from files_GN.cpp)

@<TRIPOS>ATOM
      1 C1         35.7768   39.4138   21.8124 C.3         1 L04      -0.0384
      2 C2         35.5282   38.2070   22.7840 C.3         1 L04       0.0141
      3 C3         35.4335   36.9345   22.0342 C.2         1 L04       0.0380
      4 C4         27.0323   37.7998   26.1709 C.3         1 L04      -0.0625
      5 C5         37.4510   31.9717   29.4541 C.ar        1 L04      -0.0257
      6 C6         37.7273   32.4312   30.7644 C.ar        1 L04      -0.0571
      7 C7         33.5671   37.2163   24.3714 C.3         1 L04       0.0523
      8 C8         34.5010   36.5430   25.4465 C.3         1 L04      -0.0232
      9 C9         34.2154   35.0272   25.7114 C.3         1 L04      -0.0166
     10 C10        35.0758   34.2890   26.6955 C.ar        1 L04      -0.0424
     11 C11        34.8872   32.8925   26.8473 C.ar        1 L04      -0.0596
     12 C12        35.6655   32.1390   27.7450 C.ar        1 L04      -0.0610
     13 C13        36.6653   32.7449   28.5461 C.ar        1 L04      -0.0267
     14 C14        36.8452   34.1429   28.4071 C.ar        1 L04      -0.0610
     15 C15        36.0721   34.9000   27.4998 C.ar        1 L04      -0.0596
     16 C16        32.2310   37.6139   24.8634 C.2         1 L04       0.1816
     17 C17        38.4935   31.6615   31.6588 C.ar        1 L04      -0.0282
     18 C18        34.2671   38.4558   23.6820 C.3         1 L04      -0.0186
     19 C19        30.0890   38.7383   24.1444 C.3         1 L04       0.1369
     20 C20        28.9729   37.6868   24.4402 C.3         1 L04      -0.0096
     21 C21        27.5136   38.1888   24.7418 C.3         1 L04      -0.0425
     22 C22        27.2465   39.6993   24.4615 C.3         1 L04      -0.0625
     23 C23        36.9212   39.2732   20.7614 C.3         1 L04      -0.0495
     24 C24        38.3133   38.8542   21.3016 C.3         1 L04      -0.0323
     25 C25        38.8702   39.8186   22.3824 C.3         1 L04       0.0356
     26 C26        41.2438   40.0836   23.0043 C.2         1 L04       0.2046
     27 C27        30.1621   39.9226   25.0090 C.2         1 L04       0.2292
     28 C28        40.2393   38.1263   23.6537 C.3         1 L04       0.0703
     29 C29        42.1712   39.4249   23.7470 C.ar        1 L04       0.0535
     30 C30        30.0235   40.8046   27.2840 C.ar        1 L04       0.0663
     31 C31        29.2170   40.6010   28.4287 C.ar        1 L04      -0.0413
     32 C32        29.2197   41.5237   29.4905 C.ar        1 L04      -0.0755
     33 C33        30.0403   42.6612   29.4298 C.ar        1 L04      -0.0772
     34 C34        30.8562   42.8746   28.3054 C.ar        1 L04      -0.0755
     35 C35        30.8487   41.9548   27.2388 C.ar        1 L04      -0.0413
     36 C36        41.6039   38.2238   24.1609 C.ar        1 L04      -0.0003
     37 C37        43.4754   39.7792   24.1416 C.ar        1 L04      -0.0484
     38 C38        42.3240   37.3250   24.9652 C.ar        1 L04      -0.0524
     39 C39        43.6309   37.6644   25.3645 C.ar        1 L04      -0.0641
     40 C40        44.2025   38.8899   24.9578 C.ar        1 L04      -0.0630
     41 C41        39.0315   30.4280   31.2450 C.ar        1 L04       0.1322
     42 C42        38.7798   29.9617   29.9441 C.ar        1 L04      -0.0282
     43 C43        37.9943   30.7217   29.0590 C.ar        1 L04      -0.0571
     44 N1         40.1226   39.3716   22.9399 N.am        1 L04      -0.2613
     45 N18        31.3675   38.1056   23.9709 N.am        1 L04      -0.2649
     46 N29        30.0041   39.8198   26.3278 N.am        1 L04      -0.2320
     47 O1         41.4097   41.2063   22.5519 O.2         1 L04      -0.3882
     48 O4         34.3664   36.6696   21.2500 O.co2       1 L04      -0.5687
     49 O5         36.3551   35.9615   22.2120 O.co2       1 L04      -0.5687
     50 O17        31.9268   37.5178   26.0480 O.2         1 L04      -0.3966
     51 O28        30.3270   41.0147   24.4784 O.2         1 L04      -0.3823
     52 F1         39.7574   29.7199   32.0698 F           1 L04      -0.1835
     53 H1         34.8568   39.6104   21.2510 H           1 L04       0.0286
     54 H2         35.9719   40.3021   22.4144 H           1 L04       0.0286
     55 H3         36.3940   38.1451   23.4521 H           1 L04       0.0467
     56 H4         25.9785   38.0646   26.3023 H           1 L04       0.0232
     57 H5         27.6206   38.3181   26.9354 H           1 L04       0.0232
     58 H6         27.1311   36.7164   26.3207 H           1 L04       0.0232
     59 H7         37.3475   33.3231   31.0875 H           1 L04       0.0606
     60 H8         33.3838   36.4719   23.5911 H           1 L04       0.0541
     61 H9         34.4207   37.0991   26.3880 H           1 L04       0.0315
     62 H10        35.5393   36.6133   25.1086 H           1 L04       0.0315
     63 H11        34.3091   34.5180   24.7488 H           1 L04       0.0430
     64 H12        33.1759   34.9264   26.0353 H           1 L04       0.0430
     65 H13        34.1741   32.4108   26.2875 H           1 L04       0.0559
     66 H14        35.4833   31.1339   27.8199 H           1 L04       0.0604
     67 H15        37.5667   34.6242   28.9487 H           1 L04       0.0604
     68 H16        36.2509   35.9061   27.4339 H           1 L04       0.0559
     69 H17        38.6667   32.0048   32.6053 H           1 L04       0.0604
     70 H18        33.5478   38.9693   23.0363 H           1 L04       0.0313
     71 H19        34.5411   39.1761   24.4611 H           1 L04       0.0313
     72 H20        29.8716   39.0975   23.1359 H           1 L04       0.0805
     73 H21        29.3190   37.0276   25.2438 H           1 L04       0.0315
     74 H22        28.9111   37.0567   23.5462 H           1 L04       0.0315
     75 H23        26.8540   37.6434   24.0575 H           1 L04       0.0298
     76 H24        27.5598   39.9525   23.4393 H           1 L04       0.0232
     77 H25        27.7975   40.3246   25.1738 H           1 L04       0.0232
     78 H26        26.1769   39.9208   24.5578 H           1 L04       0.0232
     79 H27        37.0249   40.2352   20.2497 H           1 L04       0.0267
     80 H28        36.6107   38.5435   20.0067 H           1 L04       0.0267
     81 H29        39.0118   38.8308   20.4607 H           1 L04       0.0285
     82 H30        38.2432   37.8415   21.6977 H           1 L04       0.0285
     83 H31        38.1494   39.8981   23.2047 H           1 L04       0.0523
     84 H32        38.9675   40.8114   21.9337 H           1 L04       0.0523
     85 H33        40.1392   37.2668   22.9861 H           1 L04       0.0699
     86 H34        39.5221   38.0646   24.4773 H           1 L04       0.0699
     87 H35        28.6059   39.7793   28.4841 H           1 L04       0.0502
     88 H36        28.6284   41.3596   30.3071 H           1 L04       0.0577
     89 H37        30.0528   43.3214   30.2058 H           1 L04       0.0487
     90 H38        31.4635   43.6943   28.2684 H           1 L04       0.0577
     91 H39        31.4795   42.1173   26.4530 H           1 L04       0.0502
     92 H40        43.8819   40.6714   23.8492 H           1 L04       0.0651
     93 H41        41.8964   36.4485   25.2604 H           1 L04       0.0569
     94 H42        44.1639   37.0259   25.9547 H           1 L04       0.0635
     95 H43        45.1457   39.1356   25.2565 H           1 L04       0.0572
     96 H44        39.1803   29.0742   29.6373 H           1 L04       0.0604
     97 H45        37.8286   30.3554   28.1203 H           1 L04       0.0606
     98 H46        31.6839   38.0998   23.0486 H           1 L04       0.1883
     99 H47        29.7717   38.9341   26.6536 H           1 L04       0.2257
@<TRIPOS>BOND
     1     1    23   1
     2     1     2   1
     3     2    18   1
     4     2     3   1
     5     3    49  ar
     6     3    48  ar
     7    18     7   1
     8     7    16   1
     9     7     8   1
    10     8     9   1
    11     9    10   1
    12    10    15  ar
    13    10    11  ar
    14    11    12  ar
    15    12    13  ar
    16    13    14  ar
    17    13     5   1
    18     5    43  ar
    19     5     6  ar
    20     6    17  ar
    21    17    41  ar
    22    41    42  ar
    23    42    43  ar
    24    14    15  ar
    25    16    50   2
    26    16    45  am
    27    45    19   1
    28    19    27   1
    29    19    20   1
    30    20    21   1
    31    21     4   1
    32    21    22   1
    33    27    51   2
    34    27    46  am
    35    46    30   1
    36    30    35  ar
    37    30    31  ar
    38    31    32  ar
    39    32    33  ar
    40    33    34  ar
    41    34    35  ar
    42    23    24   1
    43    24    25   1
    44    25    44   1
    45    44    28   1
    46    44    26  am
    47    26    47   2
    48    26    29   1
    49    29    37  ar
    50    29    36  ar
    51    36    28   1
    52    36    38  ar
    53    38    39  ar
    54    39    40  ar
    55    40    37  ar
    56    41    52   1
    57     1    53   1
    58     1    54   1
    59     2    55   1
    60     4    56   1
    61     4    57   1
    62     4    58   1
    63     6    59   1
    64     7    60   1
    65     8    61   1
    66     8    62   1
    67     9    63   1
    68     9    64   1
    69    11    65   1
    70    12    66   1
    71    14    67   1
    72    15    68   1
    73    17    69   1
    74    18    70   1
    75    18    71   1
    76    19    72   1
    77    20    73   1
    78    20    74   1
    79    21    75   1
    80    22    76   1
    81    22    77   1
    82    22    78   1
    83    23    79   1
    84    23    80   1
    85    24    81   1
    86    24    82   1
    87    25    83   1
    88    25    84   1
    89    28    85   1
    90    28    86   1
    91    31    87   1
    92    32    88   1
    93    33    89   1
    94    34    90   1
    95    35    91   1
    96    37    92   1
    97    38    93   1
    98    39    94   1
    99    40    95   1
   100    42    96   1
   101    43    97   1
   102    45    98   1
   103    46    99   1
@<TRIPOS>SUBSTRUCTURE
     1  L04      1

