@<TRIPOS>MOLECULE
1hfs_ligand_024
    99   103
SMALL
GAST_HUCK
****
This file was generated by PARSER (from files_GN.cpp)

@<TRIPOS>ATOM
      1 C1         33.2941   35.2418   24.4537 C.3         1 L04      -0.0384
      2 C2         32.7922   36.6387   23.9530 C.3         1 L04       0.0141
      3 C3         33.2273   37.7009   24.8901 C.2         1 L04       0.0380
      4 C4         25.5451   37.4556   20.3962 C.3         1 L04      -0.0625
      5 C5         28.5442   42.8457   17.6387 C.ar        1 L04      -0.0257
      6 C6         27.7793   43.9329   18.1361 C.ar        1 L04      -0.0571
      7 C7         30.6338   37.9210   23.0437 C.3         1 L04       0.0523
      8 C8         31.0563   37.9780   21.5244 C.3         1 L04      -0.0232
      9 C9         31.6710   39.3282   21.0215 C.3         1 L04      -0.0166
     10 C10        30.7610   40.2080   20.2264 C.ar        1 L04      -0.0424
     11 C11        30.2110   39.7476   19.0085 C.ar        1 L04      -0.0596
     12 C12        29.4499   40.5980   18.1822 C.ar        1 L04      -0.0610
     13 C13        29.2384   41.9566   18.5224 C.ar        1 L04      -0.0267
     14 C14        29.7839   42.4115   19.7485 C.ar        1 L04      -0.0610
     15 C15        30.5225   41.5555   20.5884 C.ar        1 L04      -0.0596
     16 C16        29.1770   38.0510   23.1971 C.2         1 L04       0.1816
     17 C17        27.0989   44.8076   17.2668 C.ar        1 L04      -0.0282
     18 C18        31.2365   36.6693   23.7916 C.3         1 L04      -0.0186
     19 C19        27.2274   39.5988   23.3194 C.3         1 L04       0.1369
     20 C20        26.2353   38.6890   22.5215 C.3         1 L04      -0.0096
     21 C21        26.5189   38.5091   20.9930 C.3         1 L04      -0.0425
     22 C22        26.4261   39.8342   20.1854 C.3         1 L04      -0.0625
     23 C23        34.8364   35.1287   24.6512 C.3         1 L04      -0.0495
     24 C24        35.6037   34.6694   23.3689 C.3         1 L04      -0.0323
     25 C25        36.9593   35.3892   23.1316 C.3         1 L04       0.0356
     26 C26        36.0006   37.3728   22.0238 C.2         1 L04       0.2046
     27 C27        26.9768   39.7070   24.7626 C.2         1 L04       0.2292
     28 C28        37.7259   37.7776   23.4701 C.3         1 L04       0.0703
     29 C29        36.2013   38.7120   21.9775 C.ar        1 L04       0.0535
     30 C30        26.0378   38.6740   26.7951 C.ar        1 L04       0.0663
     31 C31        24.8864   37.9182   27.1156 C.ar        1 L04      -0.0413
     32 C32        24.4677   37.7644   28.4511 C.ar        1 L04      -0.0755
     33 C33        25.1997   38.3572   29.4933 C.ar        1 L04      -0.0772
     34 C34        26.3663   39.0837   29.2000 C.ar        1 L04      -0.0755
     35 C35        26.7865   39.2313   27.8631 C.ar        1 L04      -0.0413
     36 C36        37.2527   39.0136   22.8416 C.ar        1 L04      -0.0003
     37 C37        35.5591   39.7205   21.2345 C.ar        1 L04      -0.0484
     38 C38        37.7096   40.3394   22.9732 C.ar        1 L04      -0.0524
     39 C39        37.0829   41.3588   22.2264 C.ar        1 L04      -0.0641
     40 C40        36.0115   41.0494   21.3598 C.ar        1 L04      -0.0630
     41 C41        27.1582   44.6083   15.8761 C.ar        1 L04       0.1322
     42 C42        27.9133   43.5423   15.3580 C.ar        1 L04      -0.0282
     43 C43        28.6001   42.6747   16.2293 C.ar        1 L04      -0.0571
     44 N1         36.8512   36.8041   22.8715 N.am        1 L04      -0.2613
     45 N18        28.6084   39.2530   23.0894 N.am        1 L04      -0.2649
     46 N29        26.3364   38.7667   25.4602 N.am        1 L04      -0.2320
     47 O1         35.1679   36.7860   21.3428 O.2         1 L04      -0.3882
     48 O4         34.0797   38.6808   24.5055 O.co2       1 L04      -0.5687
     49 O5         32.7782   37.6824   26.1697 O.co2       1 L04      -0.5687
     50 O17        28.4881   37.0663   23.4447 O.2         1 L04      -0.3966
     51 O28        27.3733   40.7337   25.3052 O.2         1 L04      -0.3823
     52 F1         26.5164   45.4121   15.0693 F           1 L04      -0.1835
     53 H1         32.8046   35.0014   25.4078 H           1 L04       0.0286
     54 H2         32.9781   34.4671   23.7462 H           1 L04       0.0286
     55 H3         33.2393   36.8254   22.9787 H           1 L04       0.0467
     56 H4         25.7555   37.2935   19.3362 H           1 L04       0.0232
     57 H5         24.5141   37.7923   20.5016 H           1 L04       0.0232
     58 H6         25.6504   36.4990   20.9134 H           1 L04       0.0232
     59 H7         27.6962   44.0925   19.1407 H           1 L04       0.0606
     60 H8         31.0330   38.7917   23.5607 H           1 L04       0.0541
     61 H9         30.2095   37.7049   20.8876 H           1 L04       0.0315
     62 H10        31.8022   37.2025   21.3310 H           1 L04       0.0315
     63 H11        32.5231   39.0950   20.3703 H           1 L04       0.0430
     64 H12        32.0973   39.8801   21.8649 H           1 L04       0.0430
     65 H13        30.3830   38.7889   18.6973 H           1 L04       0.0559
     66 H14        29.0631   40.2126   17.3164 H           1 L04       0.0604
     67 H15        29.6896   43.3936   20.0186 H           1 L04       0.0604
     68 H16        30.9190   41.9360   21.4497 H           1 L04       0.0559
     69 H17        26.5518   45.5823   17.6507 H           1 L04       0.0604
     70 H18        30.8113   36.6066   24.8033 H           1 L04       0.0313
     71 H19        30.9186   35.7605   23.2665 H           1 L04       0.0313
     72 H20        27.0916   40.6059   22.9121 H           1 L04       0.0805
     73 H21        25.2217   39.0907   22.6409 H           1 L04       0.0315
     74 H22        26.2477   37.6978   22.9816 H           1 L04       0.0315
     75 H23        27.5345   38.1193   20.8688 H           1 L04       0.0298
     76 H24        27.1635   40.5557   20.5379 H           1 L04       0.0232
     77 H25        25.4288   40.2719   20.2757 H           1 L04       0.0232
     78 H26        26.6260   39.6470   19.1269 H           1 L04       0.0232
     79 H27        35.0356   34.3972   25.4438 H           1 L04       0.0267
     80 H28        35.2205   36.0846   25.0069 H           1 L04       0.0267
     81 H29        34.9813   34.8064   22.4805 H           1 L04       0.0285
     82 H30        35.8027   33.5943   23.4528 H           1 L04       0.0285
     83 H31        37.4518   34.9368   22.2676 H           1 L04       0.0523
     84 H32        37.6016   35.2061   24.0019 H           1 L04       0.0523
     85 H33        38.7696   37.5822   23.2102 H           1 L04       0.0699
     86 H34        37.6058   37.8162   24.5554 H           1 L04       0.0699
     87 H35        24.3330   37.4803   26.3772 H           1 L04       0.0502
     88 H36        23.6231   37.2261   28.6628 H           1 L04       0.0577
     89 H37        24.8849   38.2569   30.4603 H           1 L04       0.0487
     90 H38        26.9124   39.4953   29.9579 H           1 L04       0.0577
     91 H39        27.6591   39.7363   27.6904 H           1 L04       0.0502
     92 H40        34.7858   39.4969   20.6047 H           1 L04       0.0651
     93 H41        38.4872   40.5571   23.5964 H           1 L04       0.0569
     94 H42        37.4067   42.3256   22.3089 H           1 L04       0.0635
     95 H43        35.5616   41.7900   20.8192 H           1 L04       0.0572
     96 H44        27.9675   43.3947   14.3460 H           1 L04       0.0604
     97 H45        29.1628   41.9262   15.8174 H           1 L04       0.0606
     98 H46        29.1961   39.9882   22.8497 H           1 L04       0.1883
     99 H47        25.9954   38.0296   24.9332 H           1 L04       0.2257
@<TRIPOS>BOND
     1     1    23   1
     2     1     2   1
     3     2    18   1
     4     2     3   1
     5     3    49  ar
     6     3    48  ar
     7    18     7   1
     8     7    16   1
     9     7     8   1
    10     8     9   1
    11     9    10   1
    12    10    15  ar
    13    10    11  ar
    14    11    12  ar
    15    12    13  ar
    16    13    14  ar
    17    13     5   1
    18     5    43  ar
    19     5     6  ar
    20     6    17  ar
    21    17    41  ar
    22    41    42  ar
    23    42    43  ar
    24    14    15  ar
    25    16    50   2
    26    16    45  am
    27    45    19   1
    28    19    27   1
    29    19    20   1
    30    20    21   1
    31    21     4   1
    32    21    22   1
    33    27    51   2
    34    27    46  am
    35    46    30   1
    36    30    35  ar
    37    30    31  ar
    38    31    32  ar
    39    32    33  ar
    40    33    34  ar
    41    34    35  ar
    42    23    24   1
    43    24    25   1
    44    25    44   1
    45    44    28   1
    46    44    26  am
    47    26    47   2
    48    26    29   1
    49    29    37  ar
    50    29    36  ar
    51    36    28   1
    52    36    38  ar
    53    38    39  ar
    54    39    40  ar
    55    40    37  ar
    56    41    52   1
    57     1    53   1
    58     1    54   1
    59     2    55   1
    60     4    56   1
    61     4    57   1
    62     4    58   1
    63     6    59   1
    64     7    60   1
    65     8    61   1
    66     8    62   1
    67     9    63   1
    68     9    64   1
    69    11    65   1
    70    12    66   1
    71    14    67   1
    72    15    68   1
    73    17    69   1
    74    18    70   1
    75    18    71   1
    76    19    72   1
    77    20    73   1
    78    20    74   1
    79    21    75   1
    80    22    76   1
    81    22    77   1
    82    22    78   1
    83    23    79   1
    84    23    80   1
    85    24    81   1
    86    24    82   1
    87    25    83   1
    88    25    84   1
    89    28    85   1
    90    28    86   1
    91    31    87   1
    92    32    88   1
    93    33    89   1
    94    34    90   1
    95    35    91   1
    96    37    92   1
    97    38    93   1
    98    39    94   1
    99    40    95   1
   100    42    96   1
   101    43    97   1
   102    45    98   1
   103    46    99   1
@<TRIPOS>SUBSTRUCTURE
     1  L04      1

