@<TRIPOS>MOLECULE
1hfs_ligand_089
    99   103
SMALL
GAST_HUCK
****
This file was generated by PARSER (from files_GN.cpp)

@<TRIPOS>ATOM
      1 C1         33.2403   38.1374   22.2372 C.3         1 L04      -0.0384
      2 C2         32.4111   39.1872   21.4203 C.3         1 L04       0.0141
      3 C3         32.9195   40.5767   21.6028 C.2         1 L04       0.0380
      4 C4         25.2662   36.6721   21.6192 C.3         1 L04      -0.0625
      5 C5         29.6717   44.7179   17.2558 C.ar        1 L04      -0.0257
      6 C6         29.3437   45.4882   18.3967 C.ar        1 L04      -0.0571
      7 C7         29.9572   39.6586   20.5475 C.3         1 L04       0.0523
      8 C8         29.6853   38.6074   19.3969 C.3         1 L04      -0.0232
      9 C9         30.0374   39.0287   17.9363 C.3         1 L04      -0.0166
     10 C10        29.9007   40.4832   17.6429 C.ar        1 L04      -0.0424
     11 C11        30.9927   41.2223   17.1287 C.ar        1 L04      -0.0596
     12 C12        30.9099   42.6176   16.9778 C.ar        1 L04      -0.0610
     13 C13        29.7299   43.3051   17.3362 C.ar        1 L04      -0.0267
     14 C14        28.6178   42.5657   17.7923 C.ar        1 L04      -0.0610
     15 C15        28.6959   41.1664   17.9232 C.ar        1 L04      -0.0596
     16 C16        28.6942   40.1657   21.0991 C.2         1 L04       0.1816
     17 C17        29.2860   46.8935   18.3166 C.ar        1 L04      -0.0282
     18 C18        30.8724   39.1094   21.7014 C.3         1 L04      -0.0186
     19 C19        26.7278   39.6622   22.5422 C.3         1 L04       0.1369
     20 C20        25.6586   39.2401   21.4810 C.3         1 L04      -0.0096
     21 C21        25.8584   37.8440   20.7931 C.3         1 L04      -0.0425
     22 C22        25.2982   37.8522   19.3465 C.3         1 L04      -0.0625
     23 C23        32.7540   37.8131   23.6965 C.3         1 L04      -0.0495
     24 C24        32.0017   36.4530   23.8346 C.3         1 L04      -0.0323
     25 C25        32.8971   35.1819   23.7047 C.3         1 L04       0.0356
     26 C26        34.1595   35.5074   25.8729 C.2         1 L04       0.2046
     27 C27        26.5619   39.0732   23.8706 C.2         1 L04       0.2292
     28 C28        34.8516   33.8335   24.4664 C.3         1 L04       0.0703
     29 C29        35.2467   34.9469   26.4706 C.ar        1 L04       0.0535
     30 C30        25.0383   39.0018   25.8202 C.ar        1 L04       0.0663
     31 C31        25.6554   38.0804   26.7088 C.ar        1 L04      -0.0413
     32 C32        25.1765   37.9130   28.0243 C.ar        1 L04      -0.0755
     33 C33        24.0813   38.6624   28.4789 C.ar        1 L04      -0.0772
     34 C34        23.4596   39.5802   27.6194 C.ar        1 L04      -0.0755
     35 C35        23.9366   39.7463   26.3025 C.ar        1 L04      -0.0413
     36 C36        35.6868   33.9013   25.6640 C.ar        1 L04      -0.0003
     37 C37        35.9171   35.2609   27.6662 C.ar        1 L04      -0.0484
     38 C38        36.7773   33.1049   26.0465 C.ar        1 L04      -0.0524
     39 C39        37.4481   33.3996   27.2499 C.ar        1 L04      -0.0641
     40 C40        37.0271   34.4841   28.0495 C.ar        1 L04      -0.0630
     41 C41        29.5496   47.5414   17.0957 C.ar        1 L04       0.1322
     42 C42        29.8824   46.7826   15.9572 C.ar        1 L04      -0.0282
     43 C43        29.9489   45.3788   16.0390 C.ar        1 L04      -0.0571
     44 N1         33.9171   34.9060   24.7051 N.am        1 L04      -0.2613
     45 N18        28.0322   39.4209   21.9767 N.am        1 L04      -0.2649
     46 N29        25.4201   39.2717   24.5300 N.am        1 L04      -0.2320
     47 O1         33.4945   36.3940   26.3921 O.2         1 L04      -0.3882
     48 O4         32.5026   41.3408   22.6446 O.co2       1 L04      -0.5687
     49 O5         33.7116   41.1544   20.6690 O.co2       1 L04      -0.5687
     50 O17        28.2522   41.2378   20.7056 O.2         1 L04      -0.3966
     51 O28        27.5263   38.5408   24.4170 O.2         1 L04      -0.3823
     52 F1         29.4881   48.8436   17.0160 F           1 L04      -0.1835
     53 H1         33.2574   37.2213   21.6303 H           1 L04       0.0286
     54 H2         34.2795   38.4888   22.2777 H           1 L04       0.0286
     55 H3         32.5604   38.9281   20.3638 H           1 L04       0.0467
     56 H4         25.4070   35.7227   21.0994 H           1 L04       0.0232
     57 H5         24.2002   36.8193   21.7922 H           1 L04       0.0232
     58 H6         25.7719   36.5968   22.5795 H           1 L04       0.0232
     59 H7         29.1609   45.0330   19.2952 H           1 L04       0.0606
     60 H8         30.4914   40.5129   20.1167 H           1 L04       0.0541
     61 H9         28.6319   38.3121   19.3912 H           1 L04       0.0315
     62 H10        30.2368   37.6826   19.5962 H           1 L04       0.0315
     63 H11        29.3816   38.4845   17.2499 H           1 L04       0.0430
     64 H12        31.0571   38.6906   17.7287 H           1 L04       0.0430
     65 H13        31.8728   40.7548   16.8991 H           1 L04       0.0559
     66 H14        31.7277   43.1283   16.6350 H           1 L04       0.0604
     67 H15        27.7499   43.0417   18.0477 H           1 L04       0.0604
     68 H16        27.8797   40.6546   18.2651 H           1 L04       0.0559
     69 H17        29.0543   47.4420   19.1495 H           1 L04       0.0604
     70 H18        30.6726   39.6563   22.6325 H           1 L04       0.0313
     71 H19        30.5916   38.0693   21.9012 H           1 L04       0.0313
     72 H20        26.6208   40.7393   22.6941 H           1 L04       0.0805
     73 H21        25.6830   40.0121   20.7024 H           1 L04       0.0315
     74 H22        24.6581   39.2872   21.9233 H           1 L04       0.0315
     75 H23        26.9255   37.6480   20.6908 H           1 L04       0.0298
     76 H24        25.8633   38.5573   18.7336 H           1 L04       0.0232
     77 H25        24.2506   38.1537   19.3471 H           1 L04       0.0232
     78 H26        25.3873   36.8651   18.8867 H           1 L04       0.0232
     79 H27        32.0662   38.5983   24.0365 H           1 L04       0.0267
     80 H28        33.6264   37.8189   24.3681 H           1 L04       0.0267
     81 H29        31.2276   36.4137   23.0590 H           1 L04       0.0285
     82 H30        31.4668   36.4275   24.7885 H           1 L04       0.0285
     83 H31        33.3874   35.2217   22.7213 H           1 L04       0.0523
     84 H32        32.2128   34.3218   23.6860 H           1 L04       0.0523
     85 H33        35.4527   34.0124   23.5645 H           1 L04       0.0699
     86 H34        34.3430   32.8642   24.4115 H           1 L04       0.0699
     87 H35        26.4456   37.5113   26.4162 H           1 L04       0.0502
     88 H36        25.6299   37.2468   28.6527 H           1 L04       0.0577
     89 H37        23.7360   38.5400   29.4360 H           1 L04       0.0487
     90 H38        22.6662   40.1342   27.9482 H           1 L04       0.0577
     91 H39        23.4649   40.4232   25.6981 H           1 L04       0.0502
     92 H40        35.6121   36.0475   28.2389 H           1 L04       0.0651
     93 H41        37.0812   32.3294   25.4551 H           1 L04       0.0569
     94 H42        38.2401   32.8272   27.5458 H           1 L04       0.0635
     95 H43        37.5244   34.7000   28.9114 H           1 L04       0.0572
     96 H44        30.0754   47.2471   15.0677 H           1 L04       0.0604
     97 H45        30.1872   44.8448   15.1982 H           1 L04       0.0606
     98 H46        28.4273   38.5603   22.1948 H           1 L04       0.1883
     99 H47        24.7507   39.7498   24.0168 H           1 L04       0.2257
@<TRIPOS>BOND
     1     1    23   1
     2     1     2   1
     3     2    18   1
     4     2     3   1
     5     3    49  ar
     6     3    48  ar
     7    18     7   1
     8     7    16   1
     9     7     8   1
    10     8     9   1
    11     9    10   1
    12    10    15  ar
    13    10    11  ar
    14    11    12  ar
    15    12    13  ar
    16    13    14  ar
    17    13     5   1
    18     5    43  ar
    19     5     6  ar
    20     6    17  ar
    21    17    41  ar
    22    41    42  ar
    23    42    43  ar
    24    14    15  ar
    25    16    50   2
    26    16    45  am
    27    45    19   1
    28    19    27   1
    29    19    20   1
    30    20    21   1
    31    21     4   1
    32    21    22   1
    33    27    51   2
    34    27    46  am
    35    46    30   1
    36    30    35  ar
    37    30    31  ar
    38    31    32  ar
    39    32    33  ar
    40    33    34  ar
    41    34    35  ar
    42    23    24   1
    43    24    25   1
    44    25    44   1
    45    44    28   1
    46    44    26  am
    47    26    47   2
    48    26    29   1
    49    29    37  ar
    50    29    36  ar
    51    36    28   1
    52    36    38  ar
    53    38    39  ar
    54    39    40  ar
    55    40    37  ar
    56    41    52   1
    57     1    53   1
    58     1    54   1
    59     2    55   1
    60     4    56   1
    61     4    57   1
    62     4    58   1
    63     6    59   1
    64     7    60   1
    65     8    61   1
    66     8    62   1
    67     9    63   1
    68     9    64   1
    69    11    65   1
    70    12    66   1
    71    14    67   1
    72    15    68   1
    73    17    69   1
    74    18    70   1
    75    18    71   1
    76    19    72   1
    77    20    73   1
    78    20    74   1
    79    21    75   1
    80    22    76   1
    81    22    77   1
    82    22    78   1
    83    23    79   1
    84    23    80   1
    85    24    81   1
    86    24    82   1
    87    25    83   1
    88    25    84   1
    89    28    85   1
    90    28    86   1
    91    31    87   1
    92    32    88   1
    93    33    89   1
    94    34    90   1
    95    35    91   1
    96    37    92   1
    97    38    93   1
    98    39    94   1
    99    40    95   1
   100    42    96   1
   101    43    97   1
   102    45    98   1
   103    46    99   1
@<TRIPOS>SUBSTRUCTURE
     1  L04      1

