@<TRIPOS>MOLECULE
1hfs_ligand_015
    99   103
SMALL
GAST_HUCK
****
This file was generated by PARSER (from files_GN.cpp)

@<TRIPOS>ATOM
      1 C1         31.3435   37.4204   22.7444 C.3         1 L04      -0.0384
      2 C2         31.7602   36.2509   23.7006 C.3         1 L04       0.0141
      3 C3         31.3537   36.4901   25.1089 C.2         1 L04       0.0380
      4 C4         36.2718   40.8699   24.0983 C.3         1 L04      -0.0625
      5 C5         38.0561   31.3174   29.2139 C.ar        1 L04      -0.0257
      6 C6         39.3772   31.5012   29.6980 C.ar        1 L04      -0.0571
      7 C7         34.4671   36.4611   24.0524 C.3         1 L04       0.0523
      8 C8         35.1817   35.6772   25.2160 C.3         1 L04      -0.0232
      9 C9         36.0910   34.4834   24.7825 C.3         1 L04      -0.0166
     10 C10        36.5746   33.6633   25.9343 C.ar        1 L04      -0.0424
     11 C11        37.3077   34.2608   26.9831 C.ar        1 L04      -0.0596
     12 C12        37.7777   33.4961   28.0678 C.ar        1 L04      -0.0610
     13 C13        37.5473   32.1026   28.1289 C.ar        1 L04      -0.0267
     14 C14        36.8142   31.5036   27.0760 C.ar        1 L04      -0.0610
     15 C15        36.3384   32.2724   25.9940 C.ar        1 L04      -0.0596
     16 C16        35.4642   36.9175   23.0673 C.2         1 L04       0.1816
     17 C17        39.8855   30.7107   30.7475 C.ar        1 L04      -0.0282
     18 C18        33.2100   35.6733   23.4943 C.3         1 L04      -0.0186
     19 C19        37.6435   38.0432   22.6922 C.3         1 L04       0.1369
     20 C20        38.1823   39.4683   23.0352 C.3         1 L04      -0.0096
     21 C21        37.1770   40.6577   22.8504 C.3         1 L04      -0.0425
     22 C22        37.9170   41.9875   22.5187 C.3         1 L04      -0.0625
     23 C23        31.6981   38.8999   23.0923 C.3         1 L04      -0.0495
     24 C24        30.8003   39.5832   24.1693 C.3         1 L04      -0.0323
     25 C25        30.8759   41.1441   24.1946 C.3         1 L04       0.0356
     26 C26        30.8664   42.1759   26.4326 C.2         1 L04       0.2046
     27 C27        38.6674   37.0339   22.9595 C.2         1 L04       0.2292
     28 C28        32.9216   41.6709   25.5586 C.3         1 L04       0.0703
     29 C29        31.7702   42.5872   27.3630 C.ar        1 L04       0.0535
     30 C30        40.1063   35.2880   21.9774 C.ar        1 L04       0.0663
     31 C31        40.9708   34.9459   23.0537 C.ar        1 L04      -0.0413
     32 C32        41.9119   33.9081   22.9281 C.ar        1 L04      -0.0755
     33 C33        42.0160   33.1904   21.7278 C.ar        1 L04      -0.0772
     34 C34        41.1878   33.5245   20.6411 C.ar        1 L04      -0.0755
     35 C35        40.2520   34.5678   20.7695 C.ar        1 L04      -0.0413
     36 C36        33.0412   42.3029   26.8712 C.ar        1 L04      -0.0003
     37 C37        31.6064   43.2161   28.6144 C.ar        1 L04      -0.0484
     38 C38        34.1953   42.6377   27.6036 C.ar        1 L04      -0.0524
     39 C39        34.0438   43.2724   28.8541 C.ar        1 L04      -0.0641
     40 C40        32.7550   43.5570   29.3593 C.ar        1 L04      -0.0630
     41 C41        39.0797   29.7188   31.3355 C.ar        1 L04       0.1322
     42 C42        37.7648   29.5249   30.8761 C.ar        1 L04      -0.0282
     43 C43        37.2588   30.3249   29.8314 C.ar        1 L04      -0.0571
     44 N1         31.4986   41.6553   25.3869 N.am        1 L04      -0.2613
     45 N18        36.4649   37.7054   23.4503 N.am        1 L04      -0.2649
     46 N29        39.1501   36.2763   21.9763 N.am        1 L04      -0.2320
     47 O1         29.6587   42.2939   26.5628 O.2         1 L04      -0.3882
     48 O4         30.0331   36.5489   25.4139 O.co2       1 L04      -0.5687
     49 O5         32.2534   36.5379   26.1207 O.co2       1 L04      -0.5687
     50 O17        35.4690   36.4530   21.9284 O.2         1 L04      -0.3966
     51 O28        39.0395   36.9000   24.1179 O.2         1 L04      -0.3823
     52 F1         39.5485   28.9822   32.3050 F           1 L04      -0.1835
     53 H1         31.7761   37.2118   21.7628 H           1 L04       0.0286
     54 H2         30.2583   37.3749   22.6100 H           1 L04       0.0286
     55 H3         31.1230   35.4125   23.3927 H           1 L04       0.0467
     56 H4         35.6033   41.7141   23.9339 H           1 L04       0.0232
     57 H5         36.8751   41.0715   24.9846 H           1 L04       0.0232
     58 H6         35.6554   39.9928   24.2879 H           1 L04       0.0232
     59 H7         39.9924   32.2023   29.2813 H           1 L04       0.0606
     60 H8         34.0826   37.3781   24.5034 H           1 L04       0.0541
     61 H9         34.4219   35.3030   25.9034 H           1 L04       0.0315
     62 H10        35.7878   36.3903   25.7819 H           1 L04       0.0315
     63 H11        36.9677   34.8699   24.2576 H           1 L04       0.0430
     64 H12        35.5450   33.8591   24.0679 H           1 L04       0.0430
     65 H13        37.5144   35.2612   26.9683 H           1 L04       0.0559
     66 H14        38.2951   33.9734   28.8088 H           1 L04       0.0604
     67 H15        36.6474   30.4950   27.0644 H           1 L04       0.0604
     68 H16        35.8259   31.7992   25.2471 H           1 L04       0.0559
     69 H17        40.8436   30.8609   31.0774 H           1 L04       0.0604
     70 H18        33.3232   35.4904   22.4222 H           1 L04       0.0313
     71 H19        33.2024   34.6739   23.9410 H           1 L04       0.0313
     72 H20        37.3984   38.0562   21.6227 H           1 L04       0.0805
     73 H21        39.0523   39.6370   22.3902 H           1 L04       0.0315
     74 H22        38.5507   39.4819   24.0651 H           1 L04       0.0315
     75 H23        36.5276   40.4359   21.9978 H           1 L04       0.0298
     76 H24        38.4778   41.8864   21.5868 H           1 L04       0.0232
     77 H25        38.6087   42.2512   23.3193 H           1 L04       0.0232
     78 H26        37.2026   42.8029   22.3922 H           1 L04       0.0232
     79 H27        31.5818   39.4686   22.1632 H           1 L04       0.0267
     80 H28        32.7469   38.9837   23.3806 H           1 L04       0.0267
     81 H29        31.0587   39.1804   25.1535 H           1 L04       0.0285
     82 H30        29.7603   39.2990   23.9830 H           1 L04       0.0285
     83 H31        29.8623   41.5386   24.1037 H           1 L04       0.0523
     84 H32        31.4123   41.5262   23.3243 H           1 L04       0.0523
     85 H33        33.4015   42.2842   24.7938 H           1 L04       0.0699
     86 H34        33.3442   40.6632   25.5704 H           1 L04       0.0699
     87 H35        40.9428   35.4548   23.9351 H           1 L04       0.0502
     88 H36        42.5206   33.6752   23.7185 H           1 L04       0.0577
     89 H37        42.6955   32.4333   21.6406 H           1 L04       0.0487
     90 H38        41.2650   33.0059   19.7650 H           1 L04       0.0577
     91 H39        39.6646   34.7929   19.9602 H           1 L04       0.0502
     92 H40        30.6741   43.4284   28.9759 H           1 L04       0.0651
     93 H41        35.1231   42.4287   27.2331 H           1 L04       0.0569
     94 H42        34.8705   43.5267   29.3988 H           1 L04       0.0635
     95 H43        32.6546   44.0128   30.2695 H           1 L04       0.0572
     96 H44        37.1697   28.8097   31.3014 H           1 L04       0.0604
     97 H45        36.2908   30.1764   29.5373 H           1 L04       0.0606
     98 H46        36.4754   37.9730   24.3892 H           1 L04       0.1883
     99 H47        38.7408   36.4266   21.1070 H           1 L04       0.2257
@<TRIPOS>BOND
     1     1    23   1
     2     1     2   1
     3     2    18   1
     4     2     3   1
     5     3    49  ar
     6     3    48  ar
     7    18     7   1
     8     7    16   1
     9     7     8   1
    10     8     9   1
    11     9    10   1
    12    10    15  ar
    13    10    11  ar
    14    11    12  ar
    15    12    13  ar
    16    13    14  ar
    17    13     5   1
    18     5    43  ar
    19     5     6  ar
    20     6    17  ar
    21    17    41  ar
    22    41    42  ar
    23    42    43  ar
    24    14    15  ar
    25    16    50   2
    26    16    45  am
    27    45    19   1
    28    19    27   1
    29    19    20   1
    30    20    21   1
    31    21     4   1
    32    21    22   1
    33    27    51   2
    34    27    46  am
    35    46    30   1
    36    30    35  ar
    37    30    31  ar
    38    31    32  ar
    39    32    33  ar
    40    33    34  ar
    41    34    35  ar
    42    23    24   1
    43    24    25   1
    44    25    44   1
    45    44    28   1
    46    44    26  am
    47    26    47   2
    48    26    29   1
    49    29    37  ar
    50    29    36  ar
    51    36    28   1
    52    36    38  ar
    53    38    39  ar
    54    39    40  ar
    55    40    37  ar
    56    41    52   1
    57     1    53   1
    58     1    54   1
    59     2    55   1
    60     4    56   1
    61     4    57   1
    62     4    58   1
    63     6    59   1
    64     7    60   1
    65     8    61   1
    66     8    62   1
    67     9    63   1
    68     9    64   1
    69    11    65   1
    70    12    66   1
    71    14    67   1
    72    15    68   1
    73    17    69   1
    74    18    70   1
    75    18    71   1
    76    19    72   1
    77    20    73   1
    78    20    74   1
    79    21    75   1
    80    22    76   1
    81    22    77   1
    82    22    78   1
    83    23    79   1
    84    23    80   1
    85    24    81   1
    86    24    82   1
    87    25    83   1
    88    25    84   1
    89    28    85   1
    90    28    86   1
    91    31    87   1
    92    32    88   1
    93    33    89   1
    94    34    90   1
    95    35    91   1
    96    37    92   1
    97    38    93   1
    98    39    94   1
    99    40    95   1
   100    42    96   1
   101    43    97   1
   102    45    98   1
   103    46    99   1
@<TRIPOS>SUBSTRUCTURE
     1  L04      1

