@<TRIPOS>MOLECULE
1hfs_ligand_069
    99   103
SMALL
GAST_HUCK
****
This file was generated by PARSER (from files_GN.cpp)

@<TRIPOS>ATOM
      1 C1         28.4567   41.4243   26.2762 C.3         1 L04      -0.0384
      2 C2         29.3710   40.6889   25.2381 C.3         1 L04       0.0141
      3 C3         29.2081   41.3048   23.8989 C.2         1 L04       0.0380
      4 C4         34.5290   41.9611   24.0446 C.3         1 L04      -0.0625
      5 C5         36.4820   38.5797   21.4071 C.ar        1 L04      -0.0257
      6 C6         37.2667   38.4815   22.5823 C.ar        1 L04      -0.0571
      7 C7         30.0517   38.2267   24.3495 C.3         1 L04       0.0523
      8 C8         30.0866   38.5796   22.8247 C.3         1 L04      -0.0232
      9 C9         30.8186   37.5610   21.9003 C.3         1 L04      -0.0166
     10 C10        32.2815   37.7966   21.7392 C.ar        1 L04      -0.0424
     11 C11        32.7534   39.0152   21.1978 C.ar        1 L04      -0.0596
     12 C12        34.1351   39.2647   21.0724 C.ar        1 L04      -0.0610
     13 C13        35.0840   38.2898   21.4516 C.ar        1 L04      -0.0267
     14 C14        34.6075   37.0515   21.9449 C.ar        1 L04      -0.0610
     15 C15        33.2296   36.8137   22.0984 C.ar        1 L04      -0.0596
     16 C16        31.3660   38.0523   24.9518 C.2         1 L04       0.1816
     17 C17        38.6318   38.8186   22.5684 C.ar        1 L04      -0.0282
     18 C18        29.1007   39.1453   25.2044 C.3         1 L04      -0.0186
     19 C19        33.8415   38.5135   24.8720 C.3         1 L04       0.1369
     20 C20        34.4399   39.8284   25.4969 C.3         1 L04      -0.0096
     21 C21        35.3063   40.7068   24.5213 C.3         1 L04      -0.0425
     22 C22        36.6780   41.0877   25.1446 C.3         1 L04      -0.0625
     23 C23        28.7697   42.9413   26.4524 C.3         1 L04      -0.0495
     24 C24        28.0716   43.6588   27.6438 C.3         1 L04      -0.0323
     25 C25        28.3609   43.1795   29.0953 C.3         1 L04       0.0356
     26 C26        29.9118   43.5660   30.9527 C.2         1 L04       0.2046
     27 C27        34.1988   37.3590   25.6900 C.2         1 L04       0.2292
     28 C28        30.9045   43.3323   28.9155 C.3         1 L04       0.0703
     29 C29        31.2493   43.5887   31.1968 C.ar        1 L04       0.0535
     30 C30        35.8083   35.5441   26.0200 C.ar        1 L04       0.0663
     31 C31        36.2398   34.4444   25.2374 C.ar        1 L04      -0.0413
     32 C32        36.9026   33.3536   25.8280 C.ar        1 L04      -0.0755
     33 C33        37.1633   33.3511   27.2105 C.ar        1 L04      -0.0772
     34 C34        36.7435   34.4358   28.0048 C.ar        1 L04      -0.0755
     35 C35        36.0790   35.5238   27.4091 C.ar        1 L04      -0.0413
     36 C36        31.8986   43.4523   29.9761 C.ar        1 L04      -0.0003
     37 C37        31.9816   43.6861   32.3955 C.ar        1 L04      -0.0484
     38 C38        33.3041   43.4237   29.8981 C.ar        1 L04      -0.0524
     39 C39        34.0485   43.5299   31.0921 C.ar        1 L04      -0.0641
     40 C40        33.3911   43.6561   32.3347 C.ar        1 L04      -0.0630
     41 C41        39.2376   39.2503   21.3751 C.ar        1 L04       0.1322
     42 C42        38.4773   39.3484   20.1986 C.ar        1 L04      -0.0282
     43 C43        37.1053   39.0229   20.2177 C.ar        1 L04      -0.0571
     44 N1         29.6750   43.4144   29.6528 N.am        1 L04      -0.2613
     45 N18        32.4580   38.6799   24.5033 N.am        1 L04      -0.2649
     46 N29        35.2268   36.5808   25.3550 N.am        1 L04      -0.2320
     47 O1         29.0722   43.6244   31.8413 O.2         1 L04      -0.3882
     48 O4         28.2922   40.8268   23.0258 O.co2       1 L04      -0.5687
     49 O5         29.7517   42.5180   23.6444 O.co2       1 L04      -0.5687
     50 O17        31.4316   37.3553   25.9742 O.2         1 L04      -0.3966
     51 O28        33.4454   37.0905   26.6330 O.2         1 L04      -0.3823
     52 F1         40.5038   39.5709   21.3653 F           1 L04      -0.1835
     53 H1         27.4024   41.3092   25.9996 H           1 L04       0.0286
     54 H2         28.6015   40.9289   27.2388 H           1 L04       0.0286
     55 H3         30.4061   40.8379   25.5614 H           1 L04       0.0467
     56 H4         35.1201   42.5344   23.3225 H           1 L04       0.0232
     57 H5         34.2917   42.6055   24.8935 H           1 L04       0.0232
     58 H6         33.5963   41.6606   23.5600 H           1 L04       0.0232
     59 H7         36.8464   38.1901   23.4672 H           1 L04       0.0606
     60 H8         29.5656   37.2406   24.3806 H           1 L04       0.0541
     61 H9         30.5245   39.5659   22.6833 H           1 L04       0.0315
     62 H10        29.0537   38.6449   22.4775 H           1 L04       0.0315
     63 H11        30.3740   37.6112   20.9041 H           1 L04       0.0430
     64 H12        30.6167   36.5543   22.2707 H           1 L04       0.0430
     65 H13        32.0971   39.7436   20.9055 H           1 L04       0.0559
     66 H14        34.4364   40.1803   20.7259 H           1 L04       0.0604
     67 H15        35.2643   36.3169   22.2244 H           1 L04       0.0604
     68 H16        32.9286   35.9203   22.4934 H           1 L04       0.0559
     69 H17        39.1775   38.7535   23.4293 H           1 L04       0.0604
     70 H18        28.0741   38.9814   24.8601 H           1 L04       0.0313
     71 H19        29.1356   38.7698   26.2336 H           1 L04       0.0313
     72 H20        34.3222   38.3658   23.9064 H           1 L04       0.0805
     73 H21        35.0566   39.5720   26.3653 H           1 L04       0.0315
     74 H22        33.6264   40.4253   25.9161 H           1 L04       0.0315
     75 H23        35.5602   40.1490   23.6166 H           1 L04       0.0298
     76 H24        37.2511   40.1819   25.3636 H           1 L04       0.0232
     77 H25        36.5381   41.6407   26.0752 H           1 L04       0.0232
     78 H26        37.2685   41.6959   24.4519 H           1 L04       0.0232
     79 H27        28.4555   43.4634   25.5457 H           1 L04       0.0267
     80 H28        29.8476   43.0734   26.5194 H           1 L04       0.0267
     81 H29        26.9952   43.5689   27.4781 H           1 L04       0.0285
     82 H30        28.3145   44.7234   27.5865 H           1 L04       0.0285
     83 H31        28.1384   42.1152   29.1863 H           1 L04       0.0523
     84 H32        27.6260   43.6979   29.7191 H           1 L04       0.0523
     85 H33        31.0016   44.1583   28.2101 H           1 L04       0.0699
     86 H34        31.0075   42.3713   28.4091 H           1 L04       0.0699
     87 H35        36.0816   34.4362   24.2263 H           1 L04       0.0502
     88 H36        37.2053   32.5631   25.2524 H           1 L04       0.0577
     89 H37        37.6432   32.5604   27.6406 H           1 L04       0.0487
     90 H38        36.9356   34.4403   29.0070 H           1 L04       0.0577
     91 H39        35.8360   36.3270   27.9933 H           1 L04       0.0502
     92 H40        31.5033   43.7706   33.2947 H           1 L04       0.0651
     93 H41        33.7738   43.3198   28.9969 H           1 L04       0.0569
     94 H42        35.0706   43.5063   31.0564 H           1 L04       0.0635
     95 H43        33.9369   43.7203   33.1972 H           1 L04       0.0572
     96 H44        38.9150   39.6545   19.3277 H           1 L04       0.0604
     97 H45        36.5729   39.1011   19.3483 H           1 L04       0.0606
     98 H46        32.2975   39.2764   23.7605 H           1 L04       0.1883
     99 H47        35.6109   36.7761   24.4918 H           1 L04       0.2257
@<TRIPOS>BOND
     1     1    23   1
     2     1     2   1
     3     2    18   1
     4     2     3   1
     5     3    49  ar
     6     3    48  ar
     7    18     7   1
     8     7    16   1
     9     7     8   1
    10     8     9   1
    11     9    10   1
    12    10    15  ar
    13    10    11  ar
    14    11    12  ar
    15    12    13  ar
    16    13    14  ar
    17    13     5   1
    18     5    43  ar
    19     5     6  ar
    20     6    17  ar
    21    17    41  ar
    22    41    42  ar
    23    42    43  ar
    24    14    15  ar
    25    16    50   2
    26    16    45  am
    27    45    19   1
    28    19    27   1
    29    19    20   1
    30    20    21   1
    31    21     4   1
    32    21    22   1
    33    27    51   2
    34    27    46  am
    35    46    30   1
    36    30    35  ar
    37    30    31  ar
    38    31    32  ar
    39    32    33  ar
    40    33    34  ar
    41    34    35  ar
    42    23    24   1
    43    24    25   1
    44    25    44   1
    45    44    28   1
    46    44    26  am
    47    26    47   2
    48    26    29   1
    49    29    37  ar
    50    29    36  ar
    51    36    28   1
    52    36    38  ar
    53    38    39  ar
    54    39    40  ar
    55    40    37  ar
    56    41    52   1
    57     1    53   1
    58     1    54   1
    59     2    55   1
    60     4    56   1
    61     4    57   1
    62     4    58   1
    63     6    59   1
    64     7    60   1
    65     8    61   1
    66     8    62   1
    67     9    63   1
    68     9    64   1
    69    11    65   1
    70    12    66   1
    71    14    67   1
    72    15    68   1
    73    17    69   1
    74    18    70   1
    75    18    71   1
    76    19    72   1
    77    20    73   1
    78    20    74   1
    79    21    75   1
    80    22    76   1
    81    22    77   1
    82    22    78   1
    83    23    79   1
    84    23    80   1
    85    24    81   1
    86    24    82   1
    87    25    83   1
    88    25    84   1
    89    28    85   1
    90    28    86   1
    91    31    87   1
    92    32    88   1
    93    33    89   1
    94    34    90   1
    95    35    91   1
    96    37    92   1
    97    38    93   1
    98    39    94   1
    99    40    95   1
   100    42    96   1
   101    43    97   1
   102    45    98   1
   103    46    99   1
@<TRIPOS>SUBSTRUCTURE
     1  L04      1

