@<TRIPOS>MOLECULE
1hfs_ligand_005
    99   103
SMALL
GAST_HUCK
****
This file was generated by PARSER (from files_GN.cpp)

@<TRIPOS>ATOM
      1 C1         33.3658   38.3232   23.4029 C.3         1 L04      -0.0384
      2 C2         32.8950   36.9389   23.9585 C.3         1 L04       0.0141
      3 C3         32.4593   37.0626   25.3749 C.2         1 L04       0.0380
      4 C4         40.0617   40.9035   22.2653 C.3         1 L04      -0.0625
      5 C5         38.6805   32.3913   30.5736 C.ar        1 L04      -0.0257
      6 C6         39.7622   31.5626   30.1913 C.ar        1 L04      -0.0571
      7 C7         35.3827   35.9850   24.3412 C.3         1 L04       0.0523
      8 C8         35.9480   34.8299   25.2332 C.3         1 L04      -0.0232
      9 C9         35.1864   34.5908   26.5736 C.3         1 L04      -0.0166
     10 C10        36.0624   33.9998   27.6228 C.ar        1 L04      -0.0424
     11 C11        36.0300   32.6210   27.9305 C.ar        1 L04      -0.0596
     12 C12        36.8998   32.0837   28.8996 C.ar        1 L04      -0.0610
     13 C13        37.8026   32.9187   29.5973 C.ar        1 L04      -0.0267
     14 C14        37.8216   34.2999   29.3043 C.ar        1 L04      -0.0610
     15 C15        36.9729   34.8298   28.3177 C.ar        1 L04      -0.0596
     16 C16        36.3268   36.2237   23.2493 C.2         1 L04       0.1816
     17 C17        40.6589   31.0744   31.1580 C.ar        1 L04      -0.0282
     18 C18        33.9067   35.7484   23.8268 C.3         1 L04      -0.0186
     19 C19        38.4439   37.2215   22.4634 C.3         1 L04       0.1369
     20 C20        39.3452   38.4859   22.7446 C.3         1 L04      -0.0096
     21 C21        39.0839   39.7552   21.8593 C.3         1 L04      -0.0425
     22 C22        39.2191   39.4891   20.3227 C.3         1 L04      -0.0625
     23 C23        33.7697   38.3570   21.8992 C.3         1 L04      -0.0495
     24 C24        34.4902   39.6759   21.4905 C.3         1 L04      -0.0323
     25 C25        33.5713   40.9239   21.3353 C.3         1 L04       0.0356
     26 C26        31.7600   40.4877   19.7156 C.2         1 L04       0.2046
     27 C27        39.2749   36.0117   22.4665 C.2         1 L04       0.2292
     28 C28        33.5787   41.6333   18.9250 C.3         1 L04       0.0703
     29 C29        31.5116   40.7067   18.3974 C.ar        1 L04       0.0535
     30 C30        40.4717   34.4669   20.9716 C.ar        1 L04       0.0663
     31 C31        40.8459   34.3946   19.6093 C.ar        1 L04      -0.0413
     32 C32        41.7063   33.3848   19.1482 C.ar        1 L04      -0.0755
     33 C33        42.2009   32.4230   20.0432 C.ar        1 L04      -0.0772
     34 C34        41.8309   32.4692   21.3971 C.ar        1 L04      -0.0755
     35 C35        40.9724   33.4844   21.8619 C.ar        1 L04      -0.0413
     36 C36        32.5980   41.4039   17.8726 C.ar        1 L04      -0.0003
     37 C37        30.4254   40.3501   17.5741 C.ar        1 L04      -0.0484
     38 C38        32.6416   41.7726   16.5157 C.ar        1 L04      -0.0524
     39 C39        31.5596   41.4170   15.6825 C.ar        1 L04      -0.0641
     40 C40        30.4565   40.7092   16.2092 C.ar        1 L04      -0.0630
     41 C41        40.4751   31.3927   32.5181 C.ar        1 L04       0.1322
     42 C42        39.3988   32.2109   32.9077 C.ar        1 L04      -0.0282
     43 C43        38.5104   32.7147   31.9400 C.ar        1 L04      -0.0571
     44 N1         32.9469   40.9913   20.0422 N.am        1 L04      -0.2613
     45 N18        37.3344   37.0975   23.3836 N.am        1 L04      -0.2649
     46 N29        39.6265   35.4890   21.2955 N.am        1 L04      -0.2320
     47 O1         30.9890   39.9073   20.4679 O.2         1 L04      -0.3882
     48 O4         33.2798   37.5637   26.3210 O.co2       1 L04      -0.5687
     49 O5         31.3109   36.4996   25.8020 O.co2       1 L04      -0.5687
     50 O17        36.2798   35.4908   22.2619 O.2         1 L04      -0.3966
     51 O28        39.7085   35.6108   23.5415 O.2         1 L04      -0.3823
     52 F1         41.3090   30.9369   33.4112 F           1 L04      -0.1835
     53 H1         32.5498   39.0381   23.5454 H           1 L04       0.0286
     54 H2         34.2084   38.6725   24.0033 H           1 L04       0.0286
     55 H3         32.0073   36.6536   23.3824 H           1 L04       0.0467
     56 H4         39.8328   41.8180   21.7058 H           1 L04       0.0232
     57 H5         41.0975   40.6137   22.0561 H           1 L04       0.0232
     58 H6         39.9700   41.1301   23.3333 H           1 L04       0.0232
     59 H7         39.9137   31.3286   29.2062 H           1 L04       0.0606
     60 H8         35.3911   36.8742   24.9797 H           1 L04       0.0541
     61 H9         36.9932   35.0690   25.4677 H           1 L04       0.0315
     62 H10        35.9479   33.9002   24.6545 H           1 L04       0.0315
     63 H11        34.3264   33.9424   26.3833 H           1 L04       0.0430
     64 H12        34.7867   35.5328   26.9601 H           1 L04       0.0430
     65 H13        35.3773   31.9980   27.4465 H           1 L04       0.0559
     66 H14        36.8628   31.0812   29.0971 H           1 L04       0.0604
     67 H15        38.4659   34.9262   29.7933 H           1 L04       0.0604
     68 H16        37.0167   35.8331   28.1155 H           1 L04       0.0559
     69 H17        41.4440   30.4867   30.8706 H           1 L04       0.0604
     70 H18        33.9132   35.4479   22.7748 H           1 L04       0.0313
     71 H19        33.4777   34.8839   24.3448 H           1 L04       0.0313
     72 H20        38.0015   37.3534   21.4702 H           1 L04       0.0805
     73 H21        40.4065   38.2346   22.6038 H           1 L04       0.0315
     74 H22        39.2376   38.7700   23.7995 H           1 L04       0.0315
     75 H23        38.0636   40.1095   22.0559 H           1 L04       0.0298
     76 H24        38.3157   38.9966   19.9459 H           1 L04       0.0232
     77 H25        40.0845   38.8476   20.1146 H           1 L04       0.0232
     78 H26        39.3436   40.4265   19.7666 H           1 L04       0.0232
     79 H27        32.8803   38.2127   21.2809 H           1 L04       0.0267
     80 H28        34.4470   37.5262   21.6885 H           1 L04       0.0267
     81 H29        35.0107   39.4953   20.5467 H           1 L04       0.0285
     82 H30        35.2643   39.8947   22.2323 H           1 L04       0.0285
     83 H31        34.1776   41.8234   21.4780 H           1 L04       0.0523
     84 H32        32.8178   40.9477   22.1246 H           1 L04       0.0523
     85 H33        34.5371   41.1714   18.6774 H           1 L04       0.0699
     86 H34        33.7084   42.7011   19.1015 H           1 L04       0.0699
     87 H35        40.4973   35.0884   18.9437 H           1 L04       0.0502
     88 H36        41.9778   33.3587   18.1636 H           1 L04       0.0577
     89 H37        42.8262   31.6876   19.7072 H           1 L04       0.0487
     90 H38        42.1912   31.7670   22.0456 H           1 L04       0.0577
     91 H39        40.7061   33.4804   22.8467 H           1 L04       0.0502
     92 H40        29.6280   39.8350   17.9540 H           1 L04       0.0651
     93 H41        33.4417   42.2856   16.1410 H           1 L04       0.0569
     94 H42        31.5764   41.6732   14.6921 H           1 L04       0.0635
     95 H43        29.6764   40.4562   15.5977 H           1 L04       0.0572
     96 H44        39.2595   32.4449   33.8938 H           1 L04       0.0604
     97 H45        37.7377   33.3151   32.2389 H           1 L04       0.0606
     98 H46        37.3552   37.6414   24.1993 H           1 L04       0.1883
     99 H47        39.2599   35.9543   20.5262 H           1 L04       0.2257
@<TRIPOS>BOND
     1     1    23   1
     2     1     2   1
     3     2    18   1
     4     2     3   1
     5     3    49  ar
     6     3    48  ar
     7    18     7   1
     8     7    16   1
     9     7     8   1
    10     8     9   1
    11     9    10   1
    12    10    15  ar
    13    10    11  ar
    14    11    12  ar
    15    12    13  ar
    16    13    14  ar
    17    13     5   1
    18     5    43  ar
    19     5     6  ar
    20     6    17  ar
    21    17    41  ar
    22    41    42  ar
    23    42    43  ar
    24    14    15  ar
    25    16    50   2
    26    16    45  am
    27    45    19   1
    28    19    27   1
    29    19    20   1
    30    20    21   1
    31    21     4   1
    32    21    22   1
    33    27    51   2
    34    27    46  am
    35    46    30   1
    36    30    35  ar
    37    30    31  ar
    38    31    32  ar
    39    32    33  ar
    40    33    34  ar
    41    34    35  ar
    42    23    24   1
    43    24    25   1
    44    25    44   1
    45    44    28   1
    46    44    26  am
    47    26    47   2
    48    26    29   1
    49    29    37  ar
    50    29    36  ar
    51    36    28   1
    52    36    38  ar
    53    38    39  ar
    54    39    40  ar
    55    40    37  ar
    56    41    52   1
    57     1    53   1
    58     1    54   1
    59     2    55   1
    60     4    56   1
    61     4    57   1
    62     4    58   1
    63     6    59   1
    64     7    60   1
    65     8    61   1
    66     8    62   1
    67     9    63   1
    68     9    64   1
    69    11    65   1
    70    12    66   1
    71    14    67   1
    72    15    68   1
    73    17    69   1
    74    18    70   1
    75    18    71   1
    76    19    72   1
    77    20    73   1
    78    20    74   1
    79    21    75   1
    80    22    76   1
    81    22    77   1
    82    22    78   1
    83    23    79   1
    84    23    80   1
    85    24    81   1
    86    24    82   1
    87    25    83   1
    88    25    84   1
    89    28    85   1
    90    28    86   1
    91    31    87   1
    92    32    88   1
    93    33    89   1
    94    34    90   1
    95    35    91   1
    96    37    92   1
    97    38    93   1
    98    39    94   1
    99    40    95   1
   100    42    96   1
   101    43    97   1
   102    45    98   1
   103    46    99   1
@<TRIPOS>SUBSTRUCTURE
     1  L04      1

