@<TRIPOS>MOLECULE
1hfs_ligand_023
    99   103
SMALL
GAST_HUCK
****
This file was generated by PARSER (from files_GN.cpp)

@<TRIPOS>ATOM
      1 C1         33.5702   38.4435   23.6730 C.3         1 L04      -0.0384
      2 C2         33.0484   37.0054   24.0246 C.3         1 L04       0.0141
      3 C3         32.5648   36.9968   25.4361 C.2         1 L04       0.0380
      4 C4         42.0742   39.3301   23.5170 C.3         1 L04      -0.0625
      5 C5         38.4669   31.0727   29.8519 C.ar        1 L04      -0.0257
      6 C6         39.6380   30.4388   29.3791 C.ar        1 L04      -0.0571
      7 C7         35.5219   35.9526   24.2621 C.3         1 L04       0.0523
      8 C8         36.0427   34.6959   25.0385 C.3         1 L04      -0.0232
      9 C9         35.3741   34.4738   26.4273 C.3         1 L04      -0.0166
     10 C10        36.1717   33.5844   27.3133 C.ar        1 L04      -0.0424
     11 C11        35.7521   32.2643   27.5875 C.ar        1 L04      -0.0596
     12 C12        36.5144   31.4341   28.4269 C.ar        1 L04      -0.0610
     13 C13        37.7128   31.9096   29.0015 C.ar        1 L04      -0.0267
     14 C14        38.1431   33.2243   28.7253 C.ar        1 L04      -0.0610
     15 C15        37.3744   34.0564   27.8910 C.ar        1 L04      -0.0596
     16 C16        36.5143   36.2782   23.2265 C.2         1 L04       0.1816
     17 C17        40.3582   29.5646   30.2155 C.ar        1 L04      -0.0282
     18 C18        34.0407   35.8229   23.7217 C.3         1 L04      -0.0186
     19 C19        38.8578   37.0302   22.8339 C.3         1 L04       0.1369
     20 C20        39.8055   38.0676   23.5336 C.3         1 L04      -0.0096
     21 C21        41.3579   37.9611   23.3061 C.3         1 L04      -0.0425
     22 C22        42.0316   36.9005   24.2373 C.3         1 L04      -0.0625
     23 C23        34.0875   38.6826   22.2199 C.3         1 L04      -0.0495
     24 C24        35.4242   39.4791   22.1808 C.3         1 L04      -0.0323
     25 C25        35.9390   39.8027   20.7478 C.3         1 L04       0.0356
     26 C26        38.0030   41.0614   21.2652 C.2         1 L04       0.2046
     27 C27        39.4780   35.7218   22.6256 C.2         1 L04       0.2292
     28 C28        38.2464   39.2512   19.8885 C.3         1 L04       0.0703
     29 C29        39.3230   41.0120   20.9450 C.ar        1 L04       0.0535
     30 C30        40.4180   34.2034   20.9189 C.ar        1 L04       0.0663
     31 C31        40.7414   34.2290   19.5417 C.ar        1 L04      -0.0413
     32 C32        41.4204   33.1593   18.9353 C.ar        1 L04      -0.0755
     33 C33        41.7805   32.0359   19.6953 C.ar        1 L04      -0.0772
     34 C34        41.4698   31.9891   21.0672 C.ar        1 L04      -0.0755
     35 C35        40.8007   33.0663   21.6721 C.ar        1 L04      -0.0413
     36 C36        39.5303   39.8931   20.1483 C.ar        1 L04      -0.0003
     37 C37        40.3937   41.8646   21.2693 C.ar        1 L04      -0.0484
     38 C38        40.8211   39.5375   19.7159 C.ar        1 L04      -0.0524
     39 C39        41.9038   40.3798   20.0434 C.ar        1 L04      -0.0641
     40 C40        41.6872   41.5564   20.7959 C.ar        1 L04      -0.0630
     41 C41        39.9218   29.3283   31.5318 C.ar        1 L04       0.1322
     42 C42        38.7665   29.9703   32.0153 C.ar        1 L04      -0.0282
     43 C43        38.0400   30.8387   31.1783 C.ar        1 L04      -0.0571
     44 N1         37.3574   40.0612   20.6799 N.am        1 L04      -0.2613
     45 N18        37.6334   36.9051   23.5893 N.am        1 L04      -0.2649
     46 N29        39.7571   35.3151   21.3920 N.am        1 L04      -0.2320
     47 O1         37.5182   41.9006   22.0115 O.2         1 L04      -0.3882
     48 O4         32.8534   36.0064   26.3048 O.co2       1 L04      -0.5687
     49 O5         31.6609   37.8962   25.8744 O.co2       1 L04      -0.5687
     50 O17        36.4348   35.7517   22.1248 O.2         1 L04      -0.3966
     51 O28        39.7277   35.0603   23.6214 O.2         1 L04      -0.3823
     52 F1         40.5915   28.5170   32.3047 F           1 L04      -0.1835
     53 H1         32.7587   39.1602   23.8358 H           1 L04       0.0286
     54 H2         34.3464   38.7073   24.3947 H           1 L04       0.0286
     55 H3         32.1554   36.8352   23.4122 H           1 L04       0.0467
     56 H4         43.1395   39.2463   23.2861 H           1 L04       0.0232
     57 H5         41.9603   39.6728   24.5449 H           1 L04       0.0232
     58 H6         41.6460   40.0765   22.8514 H           1 L04       0.0232
     59 H7         39.9661   30.5986   28.4240 H           1 L04       0.0606
     60 H8         35.5329   36.7688   24.9860 H           1 L04       0.0541
     61 H9         37.1218   34.7992   25.2079 H           1 L04       0.0315
     62 H10        35.9033   33.7997   24.4246 H           1 L04       0.0315
     63 H11        34.3754   34.0567   26.2732 H           1 L04       0.0430
     64 H12        35.2480   35.4296   26.9439 H           1 L04       0.0430
     65 H13        34.8937   31.8960   27.1709 H           1 L04       0.0559
     66 H14        36.1916   30.4804   28.6054 H           1 L04       0.0604
     67 H15        39.0070   33.5893   29.1336 H           1 L04       0.0604
     68 H16        37.6958   35.0108   27.7104 H           1 L04       0.0559
     69 H17        41.1967   29.1004   29.8597 H           1 L04       0.0604
     70 H18        34.0403   35.6603   22.6425 H           1 L04       0.0313
     71 H19        33.5929   34.9058   24.1122 H           1 L04       0.0313
     72 H20        38.5893   37.4574   21.8578 H           1 L04       0.0805
     73 H21        39.6263   38.0519   24.6106 H           1 L04       0.0315
     74 H22        39.4657   39.0607   23.1975 H           1 L04       0.0315
     75 H23        41.5482   37.6690   22.2675 H           1 L04       0.0298
     76 H24        41.6786   35.8929   24.0229 H           1 L04       0.0232
     77 H25        41.8178   37.1231   25.2856 H           1 L04       0.0232
     78 H26        43.1177   36.8998   24.1038 H           1 L04       0.0232
     79 H27        33.3309   39.2381   21.6561 H           1 L04       0.0267
     80 H28        34.2347   37.7348   21.7015 H           1 L04       0.0267
     81 H29        36.1878   38.9015   22.7033 H           1 L04       0.0285
     82 H30        35.2920   40.4169   22.7271 H           1 L04       0.0285
     83 H31        35.3979   40.6739   20.3670 H           1 L04       0.0523
     84 H32        35.6951   38.9597   20.0926 H           1 L04       0.0523
     85 H33        37.9986   39.3154   18.8219 H           1 L04       0.0699
     86 H34        38.2499   38.2144   20.2134 H           1 L04       0.0699
     87 H35        40.4836   35.0344   18.9656 H           1 L04       0.0502
     88 H36        41.6594   33.1974   17.9420 H           1 L04       0.0577
     89 H37        42.2787   31.2525   19.2532 H           1 L04       0.0487
     90 H38        41.7387   31.1718   21.6207 H           1 L04       0.0577
     91 H39        40.5943   32.9962   22.6669 H           1 L04       0.0502
     92 H40        40.2387   42.6964   21.8398 H           1 L04       0.0651
     93 H41        40.9720   38.6912   19.1652 H           1 L04       0.0569
     94 H42        42.8491   40.1423   19.7331 H           1 L04       0.0635
     95 H43        42.4746   42.1720   21.0214 H           1 L04       0.0572
     96 H44        38.4486   29.8080   32.9734 H           1 L04       0.0604
     97 H45        37.2034   31.3021   31.5428 H           1 L04       0.0606
     98 H46        37.6442   37.2688   24.4960 H           1 L04       0.1883
     99 H47        39.4471   35.9047   20.6850 H           1 L04       0.2257
@<TRIPOS>BOND
     1     1    23   1
     2     1     2   1
     3     2    18   1
     4     2     3   1
     5     3    49  ar
     6     3    48  ar
     7    18     7   1
     8     7    16   1
     9     7     8   1
    10     8     9   1
    11     9    10   1
    12    10    15  ar
    13    10    11  ar
    14    11    12  ar
    15    12    13  ar
    16    13    14  ar
    17    13     5   1
    18     5    43  ar
    19     5     6  ar
    20     6    17  ar
    21    17    41  ar
    22    41    42  ar
    23    42    43  ar
    24    14    15  ar
    25    16    50   2
    26    16    45  am
    27    45    19   1
    28    19    27   1
    29    19    20   1
    30    20    21   1
    31    21     4   1
    32    21    22   1
    33    27    51   2
    34    27    46  am
    35    46    30   1
    36    30    35  ar
    37    30    31  ar
    38    31    32  ar
    39    32    33  ar
    40    33    34  ar
    41    34    35  ar
    42    23    24   1
    43    24    25   1
    44    25    44   1
    45    44    28   1
    46    44    26  am
    47    26    47   2
    48    26    29   1
    49    29    37  ar
    50    29    36  ar
    51    36    28   1
    52    36    38  ar
    53    38    39  ar
    54    39    40  ar
    55    40    37  ar
    56    41    52   1
    57     1    53   1
    58     1    54   1
    59     2    55   1
    60     4    56   1
    61     4    57   1
    62     4    58   1
    63     6    59   1
    64     7    60   1
    65     8    61   1
    66     8    62   1
    67     9    63   1
    68     9    64   1
    69    11    65   1
    70    12    66   1
    71    14    67   1
    72    15    68   1
    73    17    69   1
    74    18    70   1
    75    18    71   1
    76    19    72   1
    77    20    73   1
    78    20    74   1
    79    21    75   1
    80    22    76   1
    81    22    77   1
    82    22    78   1
    83    23    79   1
    84    23    80   1
    85    24    81   1
    86    24    82   1
    87    25    83   1
    88    25    84   1
    89    28    85   1
    90    28    86   1
    91    31    87   1
    92    32    88   1
    93    33    89   1
    94    34    90   1
    95    35    91   1
    96    37    92   1
    97    38    93   1
    98    39    94   1
    99    40    95   1
   100    42    96   1
   101    43    97   1
   102    45    98   1
   103    46    99   1
@<TRIPOS>SUBSTRUCTURE
     1  L04      1

