@<TRIPOS>MOLECULE
1hfs_ligand_007
    99   103
SMALL
GAST_HUCK
****
This file was generated by PARSER (from files_GN.cpp)

@<TRIPOS>ATOM
      1 C1         33.2882   35.6171   23.4823 C.3         1 L04      -0.0384
      2 C2         32.9441   37.1529   23.5038 C.3         1 L04       0.0141
      3 C3         32.4632   37.6139   24.8337 C.2         1 L04       0.0380
      4 C4         25.4926   38.1340   19.5610 C.3         1 L04      -0.0625
      5 C5         30.2112   42.3905   27.6441 C.ar        1 L04      -0.0257
      6 C6         29.7751   41.3456   28.4915 C.ar        1 L04      -0.0571
      7 C7         31.4384   38.9656   22.1289 C.3         1 L04       0.0523
      8 C8         32.5929   40.0310   22.0612 C.3         1 L04      -0.0232
      9 C9         32.1334   41.5030   22.3051 C.3         1 L04      -0.0166
     10 C10        31.6268   41.7257   23.6868 C.ar        1 L04      -0.0424
     11 C11        32.5278   41.8130   24.7735 C.ar        1 L04      -0.0596
     12 C12        32.0604   42.0002   26.0870 C.ar        1 L04      -0.0610
     13 C13        30.6757   42.1197   26.3383 C.ar        1 L04      -0.0267
     14 C14        29.7672   42.0190   25.2615 C.ar        1 L04      -0.0610
     15 C15        30.2418   41.8273   23.9503 C.ar        1 L04      -0.0596
     16 C16        30.6313   39.0134   20.8987 C.2         1 L04       0.1816
     17 C17        29.3199   41.6340   29.7916 C.ar        1 L04      -0.0282
     18 C18        31.9273   37.4894   22.3585 C.3         1 L04      -0.0186
     19 C19        28.4134   39.2708   19.7762 C.3         1 L04       0.1369
     20 C20        27.1181   40.1323   20.0039 C.3         1 L04      -0.0096
     21 C21        25.7889   39.4058   20.4061 C.3         1 L04      -0.0425
     22 C22        25.6990   39.1121   21.9290 C.3         1 L04      -0.0625
     23 C23        34.4450   35.1991   24.4396 C.3         1 L04      -0.0495
     24 C24        35.7206   34.6980   23.7005 C.3         1 L04      -0.0323
     25 C25        37.0029   34.7024   24.5759 C.3         1 L04       0.0356
     26 C26        37.0258   34.4235   27.0209 C.2         1 L04       0.2046
     27 C27        29.0342   39.6041   18.4920 C.2         1 L04       0.2292
     28 C28        36.6765   32.5145   25.8100 C.3         1 L04       0.0703
     29 C29        36.9235   33.4265   27.9396 C.ar        1 L04       0.0535
     30 C30        30.1897   38.6429   16.5893 C.ar        1 L04       0.0663
     31 C31        30.9675   37.4826   16.3869 C.ar        1 L04      -0.0413
     32 C32        31.9278   37.4258   15.3624 C.ar        1 L04      -0.0755
     33 C33        32.1041   38.5294   14.5041 C.ar        1 L04      -0.0772
     34 C34        31.3134   39.6823   14.6716 C.ar        1 L04      -0.0755
     35 C35        30.3603   39.7373   15.7063 C.ar        1 L04      -0.0413
     36 C36        36.7199   32.2357   27.2455 C.ar        1 L04      -0.0003
     37 C37        37.0111   33.4364   29.3472 C.ar        1 L04      -0.0484
     38 C38        36.6040   31.0128   27.9289 C.ar        1 L04      -0.0524
     39 C39        36.6951   31.0083   29.3368 C.ar        1 L04      -0.0641
     40 C40        36.8960   32.2149   30.0428 C.ar        1 L04      -0.0630
     41 C41        29.3104   42.9614   30.2620 C.ar        1 L04       0.1322
     42 C42        29.7402   44.0068   29.4198 C.ar        1 L04      -0.0282
     43 C43        30.1805   43.7235   28.1135 C.ar        1 L04      -0.0571
     44 N1         36.8952   33.9359   25.7926 N.am        1 L04      -0.2613
     45 N18        29.3433   39.3790   20.8863 N.am        1 L04      -0.2649
     46 N29        29.3452   38.6200   17.6596 N.am        1 L04      -0.2320
     47 O1         37.2336   35.5926   27.3161 O.2         1 L04      -0.3882
     48 O4         32.4419   36.8000   25.9262 O.co2       1 L04      -0.5687
     49 O5         32.2360   38.9350   25.0322 O.co2       1 L04      -0.5687
     50 O17        31.2008   38.7251   19.8493 O.2         1 L04      -0.3966
     51 O28        29.4305   40.7522   18.3319 O.2         1 L04      -0.3823
     52 F1         28.9080   43.2297   31.4750 F           1 L04      -0.1835
     53 H1         32.3877   35.0458   23.7389 H           1 L04       0.0286
     54 H2         33.5562   35.3204   22.4645 H           1 L04       0.0286
     55 H3         33.8778   37.6843   23.2843 H           1 L04       0.0467
     56 H4         24.4266   37.9059   19.5849 H           1 L04       0.0232
     57 H5         26.0297   37.2700   19.9485 H           1 L04       0.0232
     58 H6         25.7829   38.2830   18.5200 H           1 L04       0.0232
     59 H7         29.7813   40.3766   28.1696 H           1 L04       0.0606
     60 H8         30.8021   39.2166   22.9811 H           1 L04       0.0541
     61 H9         33.0827   39.9872   21.0767 H           1 L04       0.0315
     62 H10        33.3577   39.7936   22.8070 H           1 L04       0.0315
     63 H11        31.3717   41.7677   21.5645 H           1 L04       0.0430
     64 H12        32.9802   42.1784   22.1349 H           1 L04       0.0430
     65 H13        33.5379   41.7568   24.6142 H           1 L04       0.0559
     66 H14        32.7384   42.0744   26.8548 H           1 L04       0.0604
     67 H15        28.7599   42.1035   25.4243 H           1 L04       0.0604
     68 H16        29.5613   41.7628   23.1894 H           1 L04       0.0559
     69 H17        28.9949   40.8754   30.3966 H           1 L04       0.0604
     70 H18        31.0300   36.8830   22.5263 H           1 L04       0.0313
     71 H19        32.3923   37.1380   21.4299 H           1 L04       0.0313
     72 H20        28.1167   38.2181   19.7639 H           1 L04       0.0805
     73 H21        26.8691   40.6847   19.0891 H           1 L04       0.0315
     74 H22        27.3274   40.9025   20.7557 H           1 L04       0.0315
     75 H23        24.9748   40.1097   20.1857 H           1 L04       0.0298
     76 H24        25.7925   40.0407   22.4962 H           1 L04       0.0232
     77 H25        26.4924   38.4300   22.2350 H           1 L04       0.0232
     78 H26        24.7330   38.6629   22.1710 H           1 L04       0.0232
     79 H27        34.0919   34.3865   25.0808 H           1 L04       0.0267
     80 H28        34.7141   36.0287   25.0935 H           1 L04       0.0267
     81 H29        35.9092   35.3335   22.8259 H           1 L04       0.0285
     82 H30        35.5462   33.6817   23.3268 H           1 L04       0.0285
     83 H31        37.2500   35.7468   24.7896 H           1 L04       0.0523
     84 H32        37.8332   34.3052   23.9840 H           1 L04       0.0523
     85 H33        37.4704   31.9809   25.2843 H           1 L04       0.0699
     86 H34        35.7027   32.2405   25.3957 H           1 L04       0.0699
     87 H35        30.8630   36.6739   17.0065 H           1 L04       0.0502
     88 H36        32.5012   36.5858   15.2421 H           1 L04       0.0577
     89 H37        32.8016   38.4898   13.7574 H           1 L04       0.0487
     90 H38        31.4357   40.4785   14.0406 H           1 L04       0.0577
     91 H39        29.7886   40.5782   15.7969 H           1 L04       0.0502
     92 H40        37.1651   34.3088   29.8553 H           1 L04       0.0651
     93 H41        36.4698   30.1435   27.4162 H           1 L04       0.0569
     94 H42        36.6242   30.1249   29.8506 H           1 L04       0.0635
     95 H43        36.9702   32.2011   31.0631 H           1 L04       0.0572
     96 H44        29.7299   44.9742   29.7529 H           1 L04       0.0604
     97 H45        30.4840   44.4939   27.5144 H           1 L04       0.0606
     98 H46        28.9703   39.6710   21.7414 H           1 L04       0.1883
     99 H47        29.0916   37.7270   17.9483 H           1 L04       0.2257
@<TRIPOS>BOND
     1     1    23   1
     2     1     2   1
     3     2    18   1
     4     2     3   1
     5     3    49  ar
     6     3    48  ar
     7    18     7   1
     8     7    16   1
     9     7     8   1
    10     8     9   1
    11     9    10   1
    12    10    15  ar
    13    10    11  ar
    14    11    12  ar
    15    12    13  ar
    16    13    14  ar
    17    13     5   1
    18     5    43  ar
    19     5     6  ar
    20     6    17  ar
    21    17    41  ar
    22    41    42  ar
    23    42    43  ar
    24    14    15  ar
    25    16    50   2
    26    16    45  am
    27    45    19   1
    28    19    27   1
    29    19    20   1
    30    20    21   1
    31    21     4   1
    32    21    22   1
    33    27    51   2
    34    27    46  am
    35    46    30   1
    36    30    35  ar
    37    30    31  ar
    38    31    32  ar
    39    32    33  ar
    40    33    34  ar
    41    34    35  ar
    42    23    24   1
    43    24    25   1
    44    25    44   1
    45    44    28   1
    46    44    26  am
    47    26    47   2
    48    26    29   1
    49    29    37  ar
    50    29    36  ar
    51    36    28   1
    52    36    38  ar
    53    38    39  ar
    54    39    40  ar
    55    40    37  ar
    56    41    52   1
    57     1    53   1
    58     1    54   1
    59     2    55   1
    60     4    56   1
    61     4    57   1
    62     4    58   1
    63     6    59   1
    64     7    60   1
    65     8    61   1
    66     8    62   1
    67     9    63   1
    68     9    64   1
    69    11    65   1
    70    12    66   1
    71    14    67   1
    72    15    68   1
    73    17    69   1
    74    18    70   1
    75    18    71   1
    76    19    72   1
    77    20    73   1
    78    20    74   1
    79    21    75   1
    80    22    76   1
    81    22    77   1
    82    22    78   1
    83    23    79   1
    84    23    80   1
    85    24    81   1
    86    24    82   1
    87    25    83   1
    88    25    84   1
    89    28    85   1
    90    28    86   1
    91    31    87   1
    92    32    88   1
    93    33    89   1
    94    34    90   1
    95    35    91   1
    96    37    92   1
    97    38    93   1
    98    39    94   1
    99    40    95   1
   100    42    96   1
   101    43    97   1
   102    45    98   1
   103    46    99   1
@<TRIPOS>SUBSTRUCTURE
     1  L04      1

