@<TRIPOS>MOLECULE
1hfs_ligand_054
    99   103
SMALL
GAST_HUCK
****
This file was generated by PARSER (from files_GN.cpp)

@<TRIPOS>ATOM
      1 C1         32.5832   37.0402   23.2563 C.3         1 L04      -0.0384
      2 C2         32.7082   35.8293   24.2162 C.3         1 L04       0.0141
      3 C3         32.4331   36.1645   25.6269 C.2         1 L04       0.0380
      4 C4         40.3014   37.8528   23.9469 C.3         1 L04      -0.0625
      5 C5         39.2376   32.1997   30.6483 C.ar        1 L04      -0.0257
      6 C6         40.3031   31.2827   30.4727 C.ar        1 L04      -0.0571
      7 C7         35.4075   35.7289   24.4173 C.3         1 L04       0.0523
      8 C8         36.4088   34.7981   25.1886 C.3         1 L04      -0.0232
      9 C9         35.8030   33.9597   26.3582 C.3         1 L04      -0.0166
     10 C10        36.7853   33.5075   27.3844 C.ar        1 L04      -0.0424
     11 C11        37.0767   32.1349   27.5703 C.ar        1 L04      -0.0596
     12 C12        37.9033   31.7090   28.6282 C.ar        1 L04      -0.0610
     13 C13        38.4561   32.6399   29.5388 C.ar        1 L04      -0.0267
     14 C14        38.1872   34.0139   29.3351 C.ar        1 L04      -0.0610
     15 C15        37.3724   34.4412   28.2676 C.ar        1 L04      -0.0596
     16 C16        36.0954   36.4264   23.3148 C.2         1 L04       0.1816
     17 C17        41.0695   30.8454   31.5699 C.ar        1 L04      -0.0282
     18 C18        34.0434   35.0311   24.0118 C.3         1 L04      -0.0186
     19 C19        37.5009   38.3957   22.6256 C.3         1 L04       0.1369
     20 C20        38.6913   37.6907   21.8780 C.3         1 L04      -0.0096
     21 C21        39.8583   37.0370   22.7000 C.3         1 L04      -0.0425
     22 C22        39.6018   35.5481   23.0490 C.3         1 L04      -0.0625
     23 C23        31.2939   37.9146   23.3551 C.3         1 L04      -0.0495
     24 C24        31.0607   38.7497   24.6538 C.3         1 L04      -0.0323
     25 C25        31.4585   40.2511   24.5987 C.3         1 L04       0.0356
     26 C26        33.2107   41.4089   23.3243 C.2         1 L04       0.2046
     27 C27        36.6868   39.2111   21.7017 C.2         1 L04       0.2292
     28 C28        33.9521   40.1620   25.0904 C.3         1 L04       0.0703
     29 C29        34.5515   41.6176   23.3799 C.ar        1 L04       0.0535
     30 C30        34.4511   39.7624   20.8096 C.ar        1 L04       0.0663
     31 C31        33.1319   39.2618   20.8156 C.ar        1 L04      -0.0413
     32 C32        32.0571   39.9729   20.2491 C.ar        1 L04      -0.0755
     33 C33        32.2945   41.2119   19.6336 C.ar        1 L04      -0.0772
     34 C34        33.6023   41.7155   19.5656 C.ar        1 L04      -0.0755
     35 C35        34.6668   40.9992   20.1432 C.ar        1 L04      -0.0413
     36 C36        35.0568   40.8471   24.4215 C.ar        1 L04      -0.0003
     37 C37        35.4058   42.4320   22.6115 C.ar        1 L04      -0.0484
     38 C38        36.4362   40.8314   24.7047 C.ar        1 L04      -0.0524
     39 C39        37.3042   41.6114   23.9142 C.ar        1 L04      -0.0641
     40 C40        36.7911   42.4107   22.8691 C.ar        1 L04      -0.0630
     41 C41        40.7734   31.3069   32.8655 C.ar        1 L04       0.1322
     42 C42        39.7133   32.2113   33.0600 C.ar        1 L04      -0.0282
     43 C43        38.9538   32.6552   31.9611 C.ar        1 L04      -0.0571
     44 N1         32.8319   40.5657   24.2776 N.am        1 L04      -0.2613
     45 N18        36.7661   37.5562   23.5476 N.am        1 L04      -0.2649
     46 N29        35.3864   39.0147   21.4999 N.am        1 L04      -0.2320
     47 O1         32.4768   41.9904   22.5342 O.2         1 L04      -0.3882
     48 O4         33.3535   36.7854   26.3944 O.co2       1 L04      -0.5687
     49 O5         31.1561   36.2035   26.0734 O.co2       1 L04      -0.5687
     50 O17        36.1149   35.9236   22.1978 O.2         1 L04      -0.3966
     51 O28        37.2582   40.1401   21.1489 O.2         1 L04      -0.3823
     52 F1         41.4833   30.9011   33.8821 F           1 L04      -0.1835
     53 H1         33.4689   37.6752   23.2857 H           1 L04       0.0286
     54 H2         32.5565   36.5780   22.2683 H           1 L04       0.0286
     55 H3         31.9112   35.1357   23.9209 H           1 L04       0.0467
     56 H4         41.2058   37.4230   24.3810 H           1 L04       0.0232
     57 H5         39.5211   37.8535   24.7099 H           1 L04       0.0232
     58 H6         40.5191   38.8851   23.6648 H           1 L04       0.0232
     59 H7         40.5370   30.9308   29.5404 H           1 L04       0.0606
     60 H8         35.1627   36.5104   25.1280 H           1 L04       0.0541
     61 H9         37.1964   35.4311   25.6090 H           1 L04       0.0315
     62 H10        36.8736   34.1089   24.4776 H           1 L04       0.0315
     63 H11        35.3057   33.0815   25.9395 H           1 L04       0.0430
     64 H12        35.0307   34.5390   26.8689 H           1 L04       0.0430
     65 H13        36.6654   31.4294   26.9536 H           1 L04       0.0559
     66 H14        38.0613   30.7055   28.7521 H           1 L04       0.0604
     67 H15        38.5715   34.7175   29.9703 H           1 L04       0.0604
     68 H16        37.1781   35.4411   28.1657 H           1 L04       0.0559
     69 H17        41.8416   30.1904   31.4223 H           1 L04       0.0604
     70 H18        34.0810   34.7189   22.9663 H           1 L04       0.0313
     71 H19        33.9181   34.1016   24.5594 H           1 L04       0.0313
     72 H20        37.9650   39.1335   23.2793 H           1 L04       0.0805
     73 H21        39.1789   38.4384   21.2427 H           1 L04       0.0315
     74 H22        38.2787   36.9495   21.1924 H           1 L04       0.0315
     75 H23        40.7319   37.0203   22.0357 H           1 L04       0.0298
     76 H24        39.4142   34.9716   22.1405 H           1 L04       0.0232
     77 H25        38.7432   35.4469   23.7065 H           1 L04       0.0232
     78 H26        40.4749   35.1198   23.5458 H           1 L04       0.0232
     79 H27        30.4417   37.2381   23.2227 H           1 L04       0.0267
     80 H28        31.2835   38.5974   22.5033 H           1 L04       0.0267
     81 H29        31.5398   38.2962   25.5099 H           1 L04       0.0285
     82 H30        29.9857   38.7240   24.8607 H           1 L04       0.0285
     83 H31        31.2546   40.6822   25.5834 H           1 L04       0.0523
     84 H32        30.7679   40.7392   23.9016 H           1 L04       0.0523
     85 H33        34.1150   39.0860   25.0918 H           1 L04       0.0699
     86 H34        33.8558   40.5258   26.1131 H           1 L04       0.0699
     87 H35        32.9450   38.3661   21.2078 H           1 L04       0.0502
     88 H36        31.1097   39.5870   20.2779 H           1 L04       0.0577
     89 H37        31.5175   41.7417   19.2330 H           1 L04       0.0487
     90 H38        33.7698   42.6069   19.1034 H           1 L04       0.0577
     91 H39        35.5944   41.4184   20.1025 H           1 L04       0.0502
     92 H40        35.0274   43.0150   21.8603 H           1 L04       0.0651
     93 H41        36.8053   40.2561   25.4667 H           1 L04       0.0569
     94 H42        38.3103   41.5993   24.0939 H           1 L04       0.0635
     95 H43        37.4288   42.9808   22.3058 H           1 L04       0.0572
     96 H44        39.4890   32.5476   34.0004 H           1 L04       0.0604
     97 H45        38.1767   33.2992   32.1319 H           1 L04       0.0606
     98 H46        36.7636   37.8599   24.4765 H           1 L04       0.1883
     99 H47        35.0233   38.2257   21.9315 H           1 L04       0.2257
@<TRIPOS>BOND
     1     1    23   1
     2     1     2   1
     3     2    18   1
     4     2     3   1
     5     3    49  ar
     6     3    48  ar
     7    18     7   1
     8     7    16   1
     9     7     8   1
    10     8     9   1
    11     9    10   1
    12    10    15  ar
    13    10    11  ar
    14    11    12  ar
    15    12    13  ar
    16    13    14  ar
    17    13     5   1
    18     5    43  ar
    19     5     6  ar
    20     6    17  ar
    21    17    41  ar
    22    41    42  ar
    23    42    43  ar
    24    14    15  ar
    25    16    50   2
    26    16    45  am
    27    45    19   1
    28    19    27   1
    29    19    20   1
    30    20    21   1
    31    21     4   1
    32    21    22   1
    33    27    51   2
    34    27    46  am
    35    46    30   1
    36    30    35  ar
    37    30    31  ar
    38    31    32  ar
    39    32    33  ar
    40    33    34  ar
    41    34    35  ar
    42    23    24   1
    43    24    25   1
    44    25    44   1
    45    44    28   1
    46    44    26  am
    47    26    47   2
    48    26    29   1
    49    29    37  ar
    50    29    36  ar
    51    36    28   1
    52    36    38  ar
    53    38    39  ar
    54    39    40  ar
    55    40    37  ar
    56    41    52   1
    57     1    53   1
    58     1    54   1
    59     2    55   1
    60     4    56   1
    61     4    57   1
    62     4    58   1
    63     6    59   1
    64     7    60   1
    65     8    61   1
    66     8    62   1
    67     9    63   1
    68     9    64   1
    69    11    65   1
    70    12    66   1
    71    14    67   1
    72    15    68   1
    73    17    69   1
    74    18    70   1
    75    18    71   1
    76    19    72   1
    77    20    73   1
    78    20    74   1
    79    21    75   1
    80    22    76   1
    81    22    77   1
    82    22    78   1
    83    23    79   1
    84    23    80   1
    85    24    81   1
    86    24    82   1
    87    25    83   1
    88    25    84   1
    89    28    85   1
    90    28    86   1
    91    31    87   1
    92    32    88   1
    93    33    89   1
    94    34    90   1
    95    35    91   1
    96    37    92   1
    97    38    93   1
    98    39    94   1
    99    40    95   1
   100    42    96   1
   101    43    97   1
   102    45    98   1
   103    46    99   1
@<TRIPOS>SUBSTRUCTURE
     1  L04      1

