@<TRIPOS>MOLECULE
1hfs_ligand_016
    99   103
SMALL
GAST_HUCK
****
This file was generated by PARSER (from files_GN.cpp)

@<TRIPOS>ATOM
      1 C1         34.3279   36.5467   23.7329 C.3         1 L04      -0.0384
      2 C2         33.2026   37.5950   24.0416 C.3         1 L04       0.0141
      3 C3         32.7047   37.3713   25.4195 C.2         1 L04       0.0380
      4 C4         25.5842   38.2470   19.4304 C.3         1 L04      -0.0625
      5 C5         26.8718   39.3428   27.8796 C.ar        1 L04      -0.0257
      6 C6         26.0766   38.1970   27.6233 C.ar        1 L04      -0.0571
      7 C7         31.0695   38.8613   22.9492 C.3         1 L04       0.0523
      8 C8         31.6244   40.2028   23.5423 C.3         1 L04      -0.0232
      9 C9         30.5468   41.2860   23.8781 C.3         1 L04      -0.0166
     10 C10        29.5773   40.8273   24.9178 C.ar        1 L04      -0.0424
     11 C11        29.9969   40.6578   26.2561 C.ar        1 L04      -0.0596
     12 C12        29.1120   40.1590   27.2290 C.ar        1 L04      -0.0610
     13 C13        27.7737   39.8411   26.8972 C.ar        1 L04      -0.0267
     14 C14        27.3481   40.0483   25.5622 C.ar        1 L04      -0.0610
     15 C15        28.2370   40.5367   24.5887 C.ar        1 L04      -0.0596
     16 C16        30.5307   39.1014   21.6040 C.2         1 L04       0.1816
     17 C17        25.1525   37.7312   28.5771 C.ar        1 L04      -0.0282
     18 C18        32.1013   37.6691   22.9348 C.3         1 L04      -0.0186
     19 C19        28.5037   39.1455   20.0801 C.3         1 L04       0.1369
     20 C20        27.2518   40.1023   20.1939 C.3         1 L04      -0.0096
     21 C21        25.8429   39.4519   20.3796 C.3         1 L04      -0.0425
     22 C22        25.5193   39.0809   21.8501 C.3         1 L04      -0.0625
     23 C23        35.4500   37.0441   22.7665 C.3         1 L04      -0.0495
     24 C24        36.8837   36.5095   23.0649 C.3         1 L04      -0.0323
     25 C25        37.0095   34.9829   23.3352 C.3         1 L04       0.0356
     26 C26        37.1531   35.0983   25.8011 C.2         1 L04       0.2046
     27 C27        29.3128   39.5013   18.9064 C.2         1 L04       0.2292
     28 C28        36.1306   33.2418   24.9420 C.3         1 L04       0.0703
     29 C29        36.8757   34.3116   26.8750 C.ar        1 L04       0.0535
     30 C30        30.3797   38.6594   16.8790 C.ar        1 L04       0.0663
     31 C31        31.0014   37.4534   16.4873 C.ar        1 L04      -0.0413
     32 C32        31.8931   37.4175   15.3987 C.ar        1 L04      -0.0755
     33 C33        32.1724   38.5917   14.6814 C.ar        1 L04      -0.0772
     34 C34        31.5434   39.7960   15.0383 C.ar        1 L04      -0.0755
     35 C35        30.6504   39.8306   16.1280 C.ar        1 L04      -0.0413
     36 C36        36.2602   33.1563   26.3991 C.ar        1 L04      -0.0003
     37 C37        37.1332   34.4921   28.2471 C.ar        1 L04      -0.0484
     38 C38        35.9027   32.1258   27.2868 C.ar        1 L04      -0.0524
     39 C39        36.1650   32.2840   28.6637 C.ar        1 L04      -0.0641
     40 C40        36.7686   33.4666   29.1419 C.ar        1 L04      -0.0630
     41 C41        25.0102   38.4025   29.8054 C.ar        1 L04       0.1322
     42 C42        25.8012   39.5324   30.0817 C.ar        1 L04      -0.0282
     43 C43        26.7292   39.9942   29.1292 C.ar        1 L04      -0.0571
     44 N1         36.7465   34.5161   24.6801 N.am        1 L04      -0.2613
     45 N18        29.2170   39.0195   21.3378 N.am        1 L04      -0.2649
     46 N29        29.5615   38.5937   17.9694 N.am        1 L04      -0.2320
     47 O1         37.8040   36.1337   25.8567 O.2         1 L04      -0.3882
     48 O4         33.5934   37.2772   26.4340 O.co2       1 L04      -0.5687
     49 O5         31.3907   37.3579   25.7577 O.co2       1 L04      -0.5687
     50 O17        31.3276   39.4330   20.7312 O.2         1 L04      -0.3966
     51 O28        29.8324   40.6152   18.8941 O.2         1 L04      -0.3823
     52 F1         24.1456   37.9806   30.6870 F           1 L04      -0.1835
     53 H1         34.7938   36.2677   24.6867 H           1 L04       0.0286
     54 H2         33.8718   35.6371   23.3035 H           1 L04       0.0286
     55 H3         33.7112   38.5695   24.0662 H           1 L04       0.0467
     56 H4         24.5060   38.1043   19.2915 H           1 L04       0.0232
     57 H5         25.9936   37.3231   19.8376 H           1 L04       0.0232
     58 H6         26.0267   38.4201   18.4533 H           1 L04       0.0232
     59 H7         26.1674   37.6884   26.7402 H           1 L04       0.0606
     60 H8         30.2389   38.5414   23.5948 H           1 L04       0.0541
     61 H9         32.3449   40.6350   22.8453 H           1 L04       0.0315
     62 H10        32.1573   39.9943   24.4670 H           1 L04       0.0315
     63 H11        30.0327   41.5741   22.9589 H           1 L04       0.0430
     64 H12        31.0602   42.1759   24.2508 H           1 L04       0.0430
     65 H13        30.9565   40.8779   26.5309 H           1 L04       0.0559
     66 H14        29.4586   40.0218   28.1813 H           1 L04       0.0604
     67 H15        26.3790   39.8538   25.2892 H           1 L04       0.0604
     68 H16        27.9023   40.6653   23.6324 H           1 L04       0.0559
     69 H17        24.5828   36.9085   28.3721 H           1 L04       0.0604
     70 H18        31.5332   36.7341   22.9538 H           1 L04       0.0313
     71 H19        32.6210   37.6866   21.9705 H           1 L04       0.0313
     72 H20        28.1200   38.1360   19.9094 H           1 L04       0.0805
     73 H21        27.1610   40.7151   19.2925 H           1 L04       0.0315
     74 H22        27.4264   40.8153   21.0064 H           1 L04       0.0315
     75 H23        25.1132   40.2217   20.0990 H           1 L04       0.0298
     76 H24        25.5680   39.9705   22.4806 H           1 L04       0.0232
     77 H25        26.2221   38.3370   22.2291 H           1 L04       0.0232
     78 H26        24.5061   38.6757   21.9207 H           1 L04       0.0232
     79 H27        35.5074   38.1399   22.8228 H           1 L04       0.0267
     80 H28        35.1662   36.7894   21.7338 H           1 L04       0.0267
     81 H29        37.3006   37.0591   23.9250 H           1 L04       0.0285
     82 H30        37.4889   36.7478   22.1761 H           1 L04       0.0285
     83 H31        38.0389   34.6956   23.1065 H           1 L04       0.0523
     84 H32        36.3606   34.4614   22.6199 H           1 L04       0.0523
     85 H33        36.6859   32.4287   24.4639 H           1 L04       0.0699
     86 H34        35.0786   33.2180   24.6378 H           1 L04       0.0699
     87 H35        30.8160   36.5839   16.9983 H           1 L04       0.0502
     88 H36        32.3509   36.5412   15.1392 H           1 L04       0.0577
     89 H37        32.8272   38.5729   13.8966 H           1 L04       0.0487
     90 H38        31.7348   40.6521   14.5119 H           1 L04       0.0577
     91 H39        30.1830   40.7095   16.3444 H           1 L04       0.0502
     92 H40        37.5810   35.3449   28.5882 H           1 L04       0.0651
     93 H41        35.4741   31.2670   26.9363 H           1 L04       0.0569
     94 H42        35.9157   31.5430   29.3204 H           1 L04       0.0635
     95 H43        36.9562   33.5792   30.1397 H           1 L04       0.0572
     96 H44        25.7042   40.0259   30.9726 H           1 L04       0.0604
     97 H45        27.2823   40.8269   29.3476 H           1 L04       0.0606
     98 H46        28.6556   38.7621   22.0861 H           1 L04       0.1883
     99 H47        29.1689   37.7203   18.1294 H           1 L04       0.2257
@<TRIPOS>BOND
     1     1    23   1
     2     1     2   1
     3     2    18   1
     4     2     3   1
     5     3    49  ar
     6     3    48  ar
     7    18     7   1
     8     7    16   1
     9     7     8   1
    10     8     9   1
    11     9    10   1
    12    10    15  ar
    13    10    11  ar
    14    11    12  ar
    15    12    13  ar
    16    13    14  ar
    17    13     5   1
    18     5    43  ar
    19     5     6  ar
    20     6    17  ar
    21    17    41  ar
    22    41    42  ar
    23    42    43  ar
    24    14    15  ar
    25    16    50   2
    26    16    45  am
    27    45    19   1
    28    19    27   1
    29    19    20   1
    30    20    21   1
    31    21     4   1
    32    21    22   1
    33    27    51   2
    34    27    46  am
    35    46    30   1
    36    30    35  ar
    37    30    31  ar
    38    31    32  ar
    39    32    33  ar
    40    33    34  ar
    41    34    35  ar
    42    23    24   1
    43    24    25   1
    44    25    44   1
    45    44    28   1
    46    44    26  am
    47    26    47   2
    48    26    29   1
    49    29    37  ar
    50    29    36  ar
    51    36    28   1
    52    36    38  ar
    53    38    39  ar
    54    39    40  ar
    55    40    37  ar
    56    41    52   1
    57     1    53   1
    58     1    54   1
    59     2    55   1
    60     4    56   1
    61     4    57   1
    62     4    58   1
    63     6    59   1
    64     7    60   1
    65     8    61   1
    66     8    62   1
    67     9    63   1
    68     9    64   1
    69    11    65   1
    70    12    66   1
    71    14    67   1
    72    15    68   1
    73    17    69   1
    74    18    70   1
    75    18    71   1
    76    19    72   1
    77    20    73   1
    78    20    74   1
    79    21    75   1
    80    22    76   1
    81    22    77   1
    82    22    78   1
    83    23    79   1
    84    23    80   1
    85    24    81   1
    86    24    82   1
    87    25    83   1
    88    25    84   1
    89    28    85   1
    90    28    86   1
    91    31    87   1
    92    32    88   1
    93    33    89   1
    94    34    90   1
    95    35    91   1
    96    37    92   1
    97    38    93   1
    98    39    94   1
    99    40    95   1
   100    42    96   1
   101    43    97   1
   102    45    98   1
   103    46    99   1
@<TRIPOS>SUBSTRUCTURE
     1  L04      1

