@<TRIPOS>MOLECULE
1hfs_ligand_003
    99   103
SMALL
GAST_HUCK
****
This file was generated by PARSER (from files_GN.cpp)

@<TRIPOS>ATOM
      1 C1         33.8461   38.3571   25.4629 C.3         1 L04      -0.0384
      2 C2         33.2974   37.1919   24.5534 C.3         1 L04       0.0141
      3 C3         31.8214   37.1259   24.7067 C.2         1 L04       0.0380
      4 C4         38.4397   39.7145   20.9018 C.3         1 L04      -0.0625
      5 C5         38.9427   31.8435   30.7531 C.ar        1 L04      -0.0257
      6 C6         38.6467   32.0910   32.1112 C.ar        1 L04      -0.0571
      7 C7         35.4278   35.5737   24.9707 C.3         1 L04       0.0523
      8 C8         35.8033   34.1210   25.4183 C.3         1 L04      -0.0232
      9 C9         35.2212   33.6913   26.8094 C.3         1 L04      -0.0166
     10 C10        36.2241   33.1608   27.7682 C.ar        1 L04      -0.0424
     11 C11        36.1304   31.8513   28.2910 C.ar        1 L04      -0.0596
     12 C12        37.0376   31.4050   29.2700 C.ar        1 L04      -0.0610
     13 C13        38.0479   32.2679   29.7471 C.ar        1 L04      -0.0267
     14 C14        38.1504   33.5732   29.2245 C.ar        1 L04      -0.0610
     15 C15        37.2479   34.0130   28.2419 C.ar        1 L04      -0.0596
     16 C16        36.1881   35.9171   23.7649 C.2         1 L04       0.1816
     17 C17        39.5536   31.7016   33.1140 C.ar        1 L04      -0.0282
     18 C18        33.8791   35.7605   24.8178 C.3         1 L04      -0.0186
     19 C19        38.1601   37.1051   22.8319 C.3         1 L04       0.1369
     20 C20        38.7555   38.5074   23.1809 C.3         1 L04      -0.0096
     21 C21        39.4470   39.2763   22.0064 C.3         1 L04      -0.0425
     22 C22        40.2313   40.5151   22.5277 C.3         1 L04      -0.0625
     23 C23        34.8494   39.3154   24.7548 C.3         1 L04      -0.0495
     24 C24        34.9819   40.7488   25.3543 C.3         1 L04      -0.0323
     25 C25        33.8737   41.7747   24.9689 C.3         1 L04       0.0356
     26 C26        32.1316   41.4853   23.2475 C.2         1 L04       0.2046
     27 C27        39.1932   36.0815   22.6733 C.2         1 L04       0.2292
     28 C28        34.2504   41.8439   22.4593 C.3         1 L04       0.0703
     29 C29        32.0240   41.4513   21.8952 C.ar        1 L04       0.0535
     30 C30        40.3079   34.5794   21.0978 C.ar        1 L04       0.0663
     31 C31        40.5875   34.5203   19.7131 C.ar        1 L04      -0.0413
     32 C32        41.5101   33.5862   19.2021 C.ar        1 L04      -0.0755
     33 C33        42.1539   32.6900   20.0683 C.ar        1 L04      -0.0772
     34 C34        41.8703   32.7173   21.4461 C.ar        1 L04      -0.0755
     35 C35        40.9492   33.6554   21.9557 C.ar        1 L04      -0.0413
     36 C36        33.2995   41.6343   21.3667 C.ar        1 L04      -0.0003
     37 C37        30.9103   41.2759   21.0487 C.ar        1 L04      -0.0484
     38 C38        33.5153   41.5993   19.9759 C.ar        1 L04      -0.0524
     39 C39        32.4123   41.3972   19.1194 C.ar        1 L04      -0.0641
     40 C40        31.1134   41.2509   19.6539 C.ar        1 L04      -0.0630
     41 C41        40.7618   31.0683   32.7662 C.ar        1 L04       0.1322
     42 C42        41.0621   30.8231   31.4123 C.ar        1 L04      -0.0282
     43 C43        40.1559   31.2040   30.4066 C.ar        1 L04      -0.0571
     44 N1         33.3965   41.6722   23.6076 N.am        1 L04      -0.2613
     45 N18        37.2537   36.7078   23.8747 N.am        1 L04      -0.2649
     46 N29        39.3876   35.5151   21.4890 N.am        1 L04      -0.2320
     47 O1         31.1753   41.3397   24.0014 O.2         1 L04      -0.3882
     48 O4         31.2847   36.9576   25.9398 O.co2       1 L04      -0.5687
     49 O5         30.9992   37.3860   23.6672 O.co2       1 L04      -0.5687
     50 O17        35.9009   35.3990   22.6888 O.2         1 L04      -0.3966
     51 O28        39.9150   35.8345   23.6323 O.2         1 L04      -0.3823
     52 F1         41.6036   30.7173   33.6957 F           1 L04      -0.1835
     53 H1         33.0116   38.9810   25.8015 H           1 L04       0.0286
     54 H2         34.3074   37.9449   26.3668 H           1 L04       0.0286
     55 H3         33.4964   37.4269   23.5044 H           1 L04       0.0467
     56 H4         38.9467   40.2936   20.1260 H           1 L04       0.0232
     57 H5         37.6465   40.3319   21.3294 H           1 L04       0.0232
     58 H6         37.9867   38.8466   20.4205 H           1 L04       0.0232
     59 H7         37.7741   32.5569   32.3771 H           1 L04       0.0606
     60 H8         35.7526   36.2231   25.7906 H           1 L04       0.0541
     61 H9         36.8964   34.0447   25.4410 H           1 L04       0.0315
     62 H10        35.4594   33.4135   24.6558 H           1 L04       0.0315
     63 H11        34.4226   32.9618   26.6351 H           1 L04       0.0430
     64 H12        34.7508   34.5378   27.3141 H           1 L04       0.0430
     65 H13        35.3929   31.2157   27.9760 H           1 L04       0.0559
     66 H14        36.9435   30.4560   29.6458 H           1 L04       0.0604
     67 H15        38.8744   34.2152   29.5620 H           1 L04       0.0604
     68 H16        37.3322   34.9713   27.8899 H           1 L04       0.0559
     69 H17        39.3313   31.8875   34.0941 H           1 L04       0.0604
     70 H18        33.5442   35.1049   24.0090 H           1 L04       0.0313
     71 H19        33.4131   35.3884   25.7302 H           1 L04       0.0313
     72 H20        37.5841   37.2112   21.9064 H           1 L04       0.0805
     73 H21        39.4767   38.3779   23.9923 H           1 L04       0.0315
     74 H22        37.9578   39.1425   23.5733 H           1 L04       0.0315
     75 H23        40.1828   38.6131   21.5392 H           1 L04       0.0298
     76 H24        41.0053   40.2062   23.2351 H           1 L04       0.0232
     77 H25        39.5614   41.2180   23.0296 H           1 L04       0.0232
     78 H26        40.7248   41.0338   21.7016 H           1 L04       0.0232
     79 H27        34.5829   39.4101   23.7003 H           1 L04       0.0267
     80 H28        35.8346   38.8513   24.7973 H           1 L04       0.0267
     81 H29        35.9448   41.1555   25.0283 H           1 L04       0.0285
     82 H30        35.0244   40.6685   26.4439 H           1 L04       0.0285
     83 H31        34.2742   42.7808   25.1148 H           1 L04       0.0523
     84 H32        33.0540   41.6713   25.6861 H           1 L04       0.0523
     85 H33        35.0429   41.0958   22.4188 H           1 L04       0.0699
     86 H34        34.6742   42.8517   22.4153 H           1 L04       0.0699
     87 H35        40.1302   35.1630   19.0646 H           1 L04       0.0502
     88 H36        41.7102   33.5652   18.1988 H           1 L04       0.0577
     89 H37        42.8260   32.0122   19.6989 H           1 L04       0.0487
     90 H38        42.3292   32.0558   22.0743 H           1 L04       0.0577
     91 H39        40.7396   33.6300   22.9541 H           1 L04       0.0502
     92 H40        29.9709   41.1682   21.4358 H           1 L04       0.0651
     93 H41        34.4555   41.7108   19.5927 H           1 L04       0.0569
     94 H42        32.5520   41.3741   18.1071 H           1 L04       0.0635
     95 H43        30.3165   41.1247   19.0253 H           1 L04       0.0572
     96 H44        41.9421   30.3692   31.1546 H           1 L04       0.0604
     97 H45        40.3861   31.0244   29.4251 H           1 L04       0.0606
     98 H46        37.4333   37.0730   24.7603 H           1 L04       0.1883
     99 H47        38.8366   35.8617   20.7724 H           1 L04       0.2257
@<TRIPOS>BOND
     1     1    23   1
     2     1     2   1
     3     2    18   1
     4     2     3   1
     5     3    49  ar
     6     3    48  ar
     7    18     7   1
     8     7    16   1
     9     7     8   1
    10     8     9   1
    11     9    10   1
    12    10    15  ar
    13    10    11  ar
    14    11    12  ar
    15    12    13  ar
    16    13    14  ar
    17    13     5   1
    18     5    43  ar
    19     5     6  ar
    20     6    17  ar
    21    17    41  ar
    22    41    42  ar
    23    42    43  ar
    24    14    15  ar
    25    16    50   2
    26    16    45  am
    27    45    19   1
    28    19    27   1
    29    19    20   1
    30    20    21   1
    31    21     4   1
    32    21    22   1
    33    27    51   2
    34    27    46  am
    35    46    30   1
    36    30    35  ar
    37    30    31  ar
    38    31    32  ar
    39    32    33  ar
    40    33    34  ar
    41    34    35  ar
    42    23    24   1
    43    24    25   1
    44    25    44   1
    45    44    28   1
    46    44    26  am
    47    26    47   2
    48    26    29   1
    49    29    37  ar
    50    29    36  ar
    51    36    28   1
    52    36    38  ar
    53    38    39  ar
    54    39    40  ar
    55    40    37  ar
    56    41    52   1
    57     1    53   1
    58     1    54   1
    59     2    55   1
    60     4    56   1
    61     4    57   1
    62     4    58   1
    63     6    59   1
    64     7    60   1
    65     8    61   1
    66     8    62   1
    67     9    63   1
    68     9    64   1
    69    11    65   1
    70    12    66   1
    71    14    67   1
    72    15    68   1
    73    17    69   1
    74    18    70   1
    75    18    71   1
    76    19    72   1
    77    20    73   1
    78    20    74   1
    79    21    75   1
    80    22    76   1
    81    22    77   1
    82    22    78   1
    83    23    79   1
    84    23    80   1
    85    24    81   1
    86    24    82   1
    87    25    83   1
    88    25    84   1
    89    28    85   1
    90    28    86   1
    91    31    87   1
    92    32    88   1
    93    33    89   1
    94    34    90   1
    95    35    91   1
    96    37    92   1
    97    38    93   1
    98    39    94   1
    99    40    95   1
   100    42    96   1
   101    43    97   1
   102    45    98   1
   103    46    99   1
@<TRIPOS>SUBSTRUCTURE
     1  L04      1

