@<TRIPOS>MOLECULE
1hfs_ligand_032
    99   103
SMALL
GAST_HUCK
****
This file was generated by PARSER (from files_GN.cpp)

@<TRIPOS>ATOM
      1 C1         33.9330   36.5706   23.4608 C.3         1 L04      -0.0384
      2 C2         32.6784   37.4011   23.9037 C.3         1 L04       0.0141
      3 C3         32.4042   37.2448   25.3649 C.2         1 L04       0.0380
      4 C4         25.2445   36.8376   20.9773 C.3         1 L04      -0.0625
      5 C5         28.5042   42.4899   16.4151 C.ar        1 L04      -0.0257
      6 C6         28.2515   41.7095   15.2586 C.ar        1 L04      -0.0571
      7 C7         30.4324   38.2809   22.7478 C.3         1 L04       0.0523
      8 C8         30.4870   38.6575   21.2231 C.3         1 L04      -0.0232
      9 C9         31.1330   40.0588   20.9345 C.3         1 L04      -0.0166
     10 C10        30.5093   40.7512   19.7760 C.ar        1 L04      -0.0424
     11 C11        31.1513   40.8327   18.5191 C.ar        1 L04      -0.0596
     12 C12        30.5021   41.4241   17.4218 C.ar        1 L04      -0.0610
     13 C13        29.1886   41.9446   17.5417 C.ar        1 L04      -0.0267
     14 C14        28.5636   41.8873   18.8124 C.ar        1 L04      -0.0610
     15 C15        29.2143   41.3067   19.9101 C.ar        1 L04      -0.0596
     16 C16        29.0408   38.1590   23.1983 C.2         1 L04       0.1816
     17 C17        27.5547   42.2443   14.1585 C.ar        1 L04      -0.0282
     18 C18        31.3900   37.0612   23.0661 C.3         1 L04      -0.0186
     19 C19        26.8911   39.4112   23.5383 C.3         1 L04       0.1369
     20 C20        26.0136   38.2634   22.9417 C.3         1 L04      -0.0096
     21 C21        25.9807   38.1427   21.3856 C.3         1 L04      -0.0425
     22 C22        25.3426   39.3741   20.6844 C.3         1 L04      -0.0625
     23 C23        34.6935   37.1222   22.2119 C.3         1 L04      -0.0495
     24 C24        36.1928   36.7102   22.1612 C.3         1 L04      -0.0323
     25 C25        37.1216   37.5707   23.0654 C.3         1 L04       0.0356
     26 C26        39.1746   36.1428   22.7233 C.2         1 L04       0.2046
     27 C27        26.6874   39.7321   24.9534 C.2         1 L04       0.2292
     28 C28        39.4462   38.1760   23.7373 C.3         1 L04       0.0703
     29 C29        40.4874   36.2056   23.0756 C.ar        1 L04       0.0535
     30 C30        25.6155   39.1806   27.0691 C.ar        1 L04       0.0663
     31 C31        25.6615   38.0725   27.9383 C.ar        1 L04      -0.0413
     32 C32        25.3176   38.2062   29.2954 C.ar        1 L04      -0.0755
     33 C33        24.8892   39.4485   29.7939 C.ar        1 L04      -0.0772
     34 C34        24.7856   40.5479   28.9280 C.ar        1 L04      -0.0755
     35 C35        25.1472   40.4194   27.5750 C.ar        1 L04      -0.0413
     36 C36        40.6968   37.4255   23.7033 C.ar        1 L04      -0.0003
     37 C37        41.5352   35.2735   22.9354 C.ar        1 L04      -0.0484
     38 C38        41.9567   37.7654   24.2251 C.ar        1 L04      -0.0524
     39 C39        43.0149   36.8402   24.0979 C.ar        1 L04      -0.0641
     40 C40        42.8066   35.5999   23.4532 C.ar        1 L04      -0.0630
     41 C41        27.0942   43.5739   14.1943 C.ar        1 L04       0.1322
     42 C42        27.3379   44.3652   15.3329 C.ar        1 L04      -0.0282
     43 C43        28.0332   43.8279   16.4298 C.ar        1 L04      -0.0571
     44 N1         38.5376   37.2467   23.1161 N.am        1 L04      -0.2613
     45 N18        28.2900   39.2603   23.2415 N.am        1 L04      -0.2649
     46 N29        25.9757   38.9604   25.7662 N.am        1 L04      -0.2320
     47 O1         38.7075   35.1605   22.1732 O.2         1 L04      -0.3882
     48 O4         31.4706   38.0217   25.9773 O.co2       1 L04      -0.5687
     49 O5         32.9987   36.2789   26.1109 O.co2       1 L04      -0.5687
     50 O17        28.5597   37.0697   23.4977 O.2         1 L04      -0.3966
     51 O28        27.2057   40.7639   25.3590 O.2         1 L04      -0.3823
     52 F1         26.4365   44.0695   13.1827 F           1 L04      -0.1835
     53 H1         34.6474   36.5518   24.2897 H           1 L04       0.0286
     54 H2         33.6275   35.5353   23.2669 H           1 L04       0.0286
     55 H3         32.9490   38.4489   23.7555 H           1 L04       0.0467
     56 H4         25.1583   36.7616   19.8920 H           1 L04       0.0232
     57 H5         24.2472   36.8155   21.4145 H           1 L04       0.0232
     58 H6         25.7943   35.9666   21.3337 H           1 L04       0.0232
     59 H7         28.5515   40.7311   15.2161 H           1 L04       0.0606
     60 H8         30.8168   39.1497   23.2931 H           1 L04       0.0541
     61 H9         29.4788   38.6487   20.7982 H           1 L04       0.0315
     62 H10        31.0428   37.8949   20.6703 H           1 L04       0.0315
     63 H11        32.2075   39.9248   20.7667 H           1 L04       0.0430
     64 H12        31.0411   40.7239   21.8018 H           1 L04       0.0430
     65 H13        32.0900   40.4455   18.3955 H           1 L04       0.0559
     66 H14        30.9953   41.4696   16.5259 H           1 L04       0.0604
     67 H15        27.6148   42.2470   18.9433 H           1 L04       0.0604
     68 H16        28.7269   41.2633   20.8092 H           1 L04       0.0559
     69 H17        27.3776   41.6630   13.3361 H           1 L04       0.0604
     70 H18        30.8378   36.2481   23.5486 H           1 L04       0.0313
     71 H19        31.7097   36.6144   22.1265 H           1 L04       0.0313
     72 H20        26.5829   40.3098   22.9969 H           1 L04       0.0805
     73 H21        24.9896   38.3813   23.3000 H           1 L04       0.0315
     74 H22        26.3742   37.3232   23.3501 H           1 L04       0.0315
     75 H23        27.0059   38.0540   21.0213 H           1 L04       0.0298
     76 H24        25.9618   40.2617   20.8309 H           1 L04       0.0232
     77 H25        24.3432   39.5703   21.0784 H           1 L04       0.0232
     78 H26        25.2641   39.1998   19.6095 H           1 L04       0.0232
     79 H27        34.6092   38.2147   22.1846 H           1 L04       0.0267
     80 H28        34.2324   36.7324   21.3042 H           1 L04       0.0267
     81 H29        36.5551   36.8184   21.1303 H           1 L04       0.0285
     82 H30        36.2669   35.6519   22.4410 H           1 L04       0.0285
     83 H31        36.7501   37.5233   24.0961 H           1 L04       0.0523
     84 H32        37.0277   38.6179   22.7411 H           1 L04       0.0523
     85 H33        39.1555   38.3899   24.7662 H           1 L04       0.0699
     86 H34        39.5317   39.1001   23.1629 H           1 L04       0.0699
     87 H35        25.9656   37.1613   27.5885 H           1 L04       0.0502
     88 H36        25.3776   37.4007   29.9201 H           1 L04       0.0577
     89 H37        24.6404   39.5444   30.7793 H           1 L04       0.0487
     90 H38        24.4473   41.4438   29.2832 H           1 L04       0.0577
     91 H39        25.0339   41.2239   26.9544 H           1 L04       0.0502
     92 H40        41.3779   34.3643   22.4918 H           1 L04       0.0651
     93 H41        42.0997   38.6537   24.7063 H           1 L04       0.0569
     94 H42        43.9411   37.0706   24.4685 H           1 L04       0.0635
     95 H43        43.5776   34.9298   23.3750 H           1 L04       0.0572
     96 H44        27.0062   45.3315   15.3671 H           1 L04       0.0604
     97 H45        28.2035   44.4301   17.2410 H           1 L04       0.0606
     98 H46        28.7448   40.0862   22.9902 H           1 L04       0.1883
     99 H47        25.7089   38.1045   25.4029 H           1 L04       0.2257
@<TRIPOS>BOND
     1     1    23   1
     2     1     2   1
     3     2    18   1
     4     2     3   1
     5     3    49  ar
     6     3    48  ar
     7    18     7   1
     8     7    16   1
     9     7     8   1
    10     8     9   1
    11     9    10   1
    12    10    15  ar
    13    10    11  ar
    14    11    12  ar
    15    12    13  ar
    16    13    14  ar
    17    13     5   1
    18     5    43  ar
    19     5     6  ar
    20     6    17  ar
    21    17    41  ar
    22    41    42  ar
    23    42    43  ar
    24    14    15  ar
    25    16    50   2
    26    16    45  am
    27    45    19   1
    28    19    27   1
    29    19    20   1
    30    20    21   1
    31    21     4   1
    32    21    22   1
    33    27    51   2
    34    27    46  am
    35    46    30   1
    36    30    35  ar
    37    30    31  ar
    38    31    32  ar
    39    32    33  ar
    40    33    34  ar
    41    34    35  ar
    42    23    24   1
    43    24    25   1
    44    25    44   1
    45    44    28   1
    46    44    26  am
    47    26    47   2
    48    26    29   1
    49    29    37  ar
    50    29    36  ar
    51    36    28   1
    52    36    38  ar
    53    38    39  ar
    54    39    40  ar
    55    40    37  ar
    56    41    52   1
    57     1    53   1
    58     1    54   1
    59     2    55   1
    60     4    56   1
    61     4    57   1
    62     4    58   1
    63     6    59   1
    64     7    60   1
    65     8    61   1
    66     8    62   1
    67     9    63   1
    68     9    64   1
    69    11    65   1
    70    12    66   1
    71    14    67   1
    72    15    68   1
    73    17    69   1
    74    18    70   1
    75    18    71   1
    76    19    72   1
    77    20    73   1
    78    20    74   1
    79    21    75   1
    80    22    76   1
    81    22    77   1
    82    22    78   1
    83    23    79   1
    84    23    80   1
    85    24    81   1
    86    24    82   1
    87    25    83   1
    88    25    84   1
    89    28    85   1
    90    28    86   1
    91    31    87   1
    92    32    88   1
    93    33    89   1
    94    34    90   1
    95    35    91   1
    96    37    92   1
    97    38    93   1
    98    39    94   1
    99    40    95   1
   100    42    96   1
   101    43    97   1
   102    45    98   1
   103    46    99   1
@<TRIPOS>SUBSTRUCTURE
     1  L04      1

