@<TRIPOS>MOLECULE
1hfs_ligand_049
    99   103
SMALL
GAST_HUCK
****
This file was generated by PARSER (from files_GN.cpp)

@<TRIPOS>ATOM
      1 C1         34.2206   37.5491   23.4909 C.3         1 L04      -0.0384
      2 C2         32.7243   37.8723   23.8380 C.3         1 L04       0.0141
      3 C3         32.3892   37.5014   25.2410 C.2         1 L04       0.0380
      4 C4         25.2502   36.8997   21.2745 C.3         1 L04      -0.0625
      5 C5         28.1999   43.4911   17.6626 C.ar        1 L04      -0.0257
      6 C6         27.3163   44.2514   18.4675 C.ar        1 L04      -0.0571
      7 C7         30.5588   38.2687   22.3125 C.3         1 L04       0.0523
      8 C8         30.2558   38.0743   20.7761 C.3         1 L04      -0.0232
      9 C9         31.0887   38.9807   19.8155 C.3         1 L04      -0.0166
     10 C10        30.3174   40.1436   19.2856 C.ar        1 L04      -0.0424
     11 C11        29.5935   40.0294   18.0743 C.ar        1 L04      -0.0596
     12 C12        28.9051   41.1361   17.5378 C.ar        1 L04      -0.0610
     13 C13        28.9068   42.3789   18.2075 C.ar        1 L04      -0.0267
     14 C14        29.5994   42.4803   19.4399 C.ar        1 L04      -0.0610
     15 C15        30.2903   41.3748   19.9744 C.ar        1 L04      -0.0596
     16 C16        29.3108   38.2771   23.0854 C.2         1 L04       0.1816
     17 C17        26.5919   45.3287   17.9293 C.ar        1 L04      -0.0282
     18 C18        31.6878   37.2810   22.8111 C.3         1 L04      -0.0186
     19 C19        27.2113   39.5681   23.5318 C.3         1 L04       0.1369
     20 C20        26.1479   38.5115   23.0721 C.3         1 L04      -0.0096
     21 C21        26.0128   38.2283   21.5360 C.3         1 L04      -0.0425
     22 C22        25.3680   39.4001   20.7460 C.3         1 L04      -0.0625
     23 C23        34.7262   37.9388   22.0575 C.3         1 L04      -0.0495
     24 C24        35.9623   38.8902   21.9773 C.3         1 L04      -0.0323
     25 C25        35.6336   40.4002   21.7970 C.3         1 L04       0.0356
     26 C26        34.9416   41.0640   24.0609 C.2         1 L04       0.2046
     27 C27        27.2900   39.7685   24.9820 C.2         1 L04       0.2292
     28 C28        33.3500   41.2655   22.4064 C.3         1 L04       0.0703
     29 C29        33.8100   41.4716   24.6898 C.ar        1 L04       0.0535
     30 C30        28.3314   40.9423   26.7877 C.ar        1 L04       0.0663
     31 C31        29.2683   40.2894   27.6204 C.ar        1 L04      -0.0413
     32 C32        29.4387   40.6959   28.9545 C.ar        1 L04      -0.0755
     33 C33        28.6770   41.7615   29.4707 C.ar        1 L04      -0.0772
     34 C34        27.7407   42.4174   28.6458 C.ar        1 L04      -0.0755
     35 C35        27.5725   42.0138   27.3115 C.ar        1 L04      -0.0413
     36 C36        32.8066   41.5942   23.7230 C.ar        1 L04      -0.0003
     37 C37        33.5339   41.7081   26.0539 C.ar        1 L04      -0.0484
     38 C38        31.4956   41.9445   24.0970 C.ar        1 L04      -0.0524
     39 C39        31.2175   42.2079   25.4528 C.ar        1 L04      -0.0641
     40 C40        32.2298   42.0881   26.4292 C.ar        1 L04      -0.0630
     41 C41        26.7396   45.6684   16.5743 C.ar        1 L04       0.1322
     42 C42        27.6230   44.9387   15.7603 C.ar        1 L04      -0.0282
     43 C43        28.3447   43.8545   16.3020 C.ar        1 L04      -0.0571
     44 N1         34.6966   40.9066   22.7613 N.am        1 L04      -0.2613
     45 N18        28.5144   39.3346   22.9643 N.am        1 L04      -0.2649
     46 N29        28.2078   40.5878   25.4813 N.am        1 L04      -0.2320
     47 O1         36.0050   40.8503   24.6296 O.2         1 L04      -0.3882
     48 O4         33.2271   36.8371   26.0660 O.co2       1 L04      -0.5687
     49 O5         31.2078   37.8641   25.7860 O.co2       1 L04      -0.5687
     50 O17        28.9258   37.2714   23.6788 O.2         1 L04      -0.3966
     51 O28        26.4673   39.2520   25.7354 O.2         1 L04      -0.3823
     52 F1         26.0574   46.6609   16.0702 F           1 L04      -0.1835
     53 H1         34.8429   38.0523   24.2317 H           1 L04       0.0286
     54 H2         34.3765   36.4741   23.6311 H           1 L04       0.0286
     55 H3         32.6599   38.9590   23.8059 H           1 L04       0.0467
     56 H4         25.1670   36.7102   20.2020 H           1 L04       0.0232
     57 H5         24.2500   36.9348   21.7039 H           1 L04       0.0232
     58 H6         25.7885   36.0616   21.7203 H           1 L04       0.0232
     59 H7         27.1736   44.0080   19.4517 H           1 L04       0.0606
     60 H8         30.9591   39.2826   22.4143 H           1 L04       0.0541
     61 H9         29.2011   38.2363   20.5579 H           1 L04       0.0315
     62 H10        30.4425   37.0266   20.5196 H           1 L04       0.0315
     63 H11        31.3925   38.3708   18.9536 H           1 L04       0.0430
     64 H12        32.0074   39.3314   20.3016 H           1 L04       0.0430
     65 H13        29.5620   39.1447   17.5671 H           1 L04       0.0559
     66 H14        28.3956   41.0104   16.6599 H           1 L04       0.0604
     67 H15        29.6230   43.3664   19.9535 H           1 L04       0.0604
     68 H16        30.7841   41.4812   20.8611 H           1 L04       0.0559
     69 H17        25.9560   45.8599   18.5278 H           1 L04       0.0604
     70 H18        31.2402   36.3663   23.2158 H           1 L04       0.0313
     71 H19        32.2396   36.9414   21.9354 H           1 L04       0.0313
     72 H20        26.8899   40.5261   23.1214 H           1 L04       0.0805
     73 H21        25.1679   38.8246   23.4452 H           1 L04       0.0315
     74 H22        26.3990   37.5705   23.5659 H           1 L04       0.0315
     75 H23        27.0127   38.0817   21.1305 H           1 L04       0.0298
     76 H24        25.9672   40.3040   20.8506 H           1 L04       0.0232
     77 H25        24.3567   39.5999   21.1028 H           1 L04       0.0232
     78 H26        25.3187   39.1558   19.6827 H           1 L04       0.0232
     79 H27        33.9174   38.3790   21.4683 H           1 L04       0.0267
     80 H28        34.9891   37.0075   21.5393 H           1 L04       0.0267
     81 H29        36.5664   38.5937   21.1079 H           1 L04       0.0285
     82 H30        36.6019   38.7576   22.8522 H           1 L04       0.0285
     83 H31        35.2408   40.5382   20.7839 H           1 L04       0.0523
     84 H32        36.5550   40.9850   21.8583 H           1 L04       0.0523
     85 H33        32.8201   40.4343   21.9333 H           1 L04       0.0699
     86 H34        33.3447   42.1444   21.7497 H           1 L04       0.0699
     87 H35        29.8281   39.5198   27.2562 H           1 L04       0.0502
     88 H36        30.1161   40.2176   29.5555 H           1 L04       0.0577
     89 H37        28.8066   42.0593   30.4405 H           1 L04       0.0487
     90 H38        27.1889   43.1926   29.0229 H           1 L04       0.0577
     91 H39        26.8993   42.5045   26.7166 H           1 L04       0.0502
     92 H40        34.2681   41.6014   26.7599 H           1 L04       0.0651
     93 H41        30.7549   41.9843   23.3966 H           1 L04       0.0569
     94 H42        30.2703   42.4830   25.7329 H           1 L04       0.0635
     95 H43        32.0135   42.2644   27.4119 H           1 L04       0.0572
     96 H44        27.7486   45.1902   14.7786 H           1 L04       0.0604
     97 H45        28.9877   43.3410   15.6900 H           1 L04       0.0606
     98 H46        28.8482   40.0544   22.3998 H           1 L04       0.1883
     99 H47        28.8443   40.9751   24.8581 H           1 L04       0.2257
@<TRIPOS>BOND
     1     1    23   1
     2     1     2   1
     3     2    18   1
     4     2     3   1
     5     3    49  ar
     6     3    48  ar
     7    18     7   1
     8     7    16   1
     9     7     8   1
    10     8     9   1
    11     9    10   1
    12    10    15  ar
    13    10    11  ar
    14    11    12  ar
    15    12    13  ar
    16    13    14  ar
    17    13     5   1
    18     5    43  ar
    19     5     6  ar
    20     6    17  ar
    21    17    41  ar
    22    41    42  ar
    23    42    43  ar
    24    14    15  ar
    25    16    50   2
    26    16    45  am
    27    45    19   1
    28    19    27   1
    29    19    20   1
    30    20    21   1
    31    21     4   1
    32    21    22   1
    33    27    51   2
    34    27    46  am
    35    46    30   1
    36    30    35  ar
    37    30    31  ar
    38    31    32  ar
    39    32    33  ar
    40    33    34  ar
    41    34    35  ar
    42    23    24   1
    43    24    25   1
    44    25    44   1
    45    44    28   1
    46    44    26  am
    47    26    47   2
    48    26    29   1
    49    29    37  ar
    50    29    36  ar
    51    36    28   1
    52    36    38  ar
    53    38    39  ar
    54    39    40  ar
    55    40    37  ar
    56    41    52   1
    57     1    53   1
    58     1    54   1
    59     2    55   1
    60     4    56   1
    61     4    57   1
    62     4    58   1
    63     6    59   1
    64     7    60   1
    65     8    61   1
    66     8    62   1
    67     9    63   1
    68     9    64   1
    69    11    65   1
    70    12    66   1
    71    14    67   1
    72    15    68   1
    73    17    69   1
    74    18    70   1
    75    18    71   1
    76    19    72   1
    77    20    73   1
    78    20    74   1
    79    21    75   1
    80    22    76   1
    81    22    77   1
    82    22    78   1
    83    23    79   1
    84    23    80   1
    85    24    81   1
    86    24    82   1
    87    25    83   1
    88    25    84   1
    89    28    85   1
    90    28    86   1
    91    31    87   1
    92    32    88   1
    93    33    89   1
    94    34    90   1
    95    35    91   1
    96    37    92   1
    97    38    93   1
    98    39    94   1
    99    40    95   1
   100    42    96   1
   101    43    97   1
   102    45    98   1
   103    46    99   1
@<TRIPOS>SUBSTRUCTURE
     1  L04      1

