@<TRIPOS>MOLECULE
1hfs_ligand_030
    99   103
SMALL
GAST_HUCK
****
This file was generated by PARSER (from files_GN.cpp)

@<TRIPOS>ATOM
      1 C1         37.9542   38.4207   21.5240 C.3         1 L04      -0.0384
      2 C2         37.2723   37.7974   22.7950 C.3         1 L04       0.0141
      3 C3         38.3056   37.1850   23.6926 C.2         1 L04       0.0380
      4 C4         30.3518   37.8767   19.9020 C.3         1 L04      -0.0625
      5 C5         37.4057   31.6671   29.2321 C.ar        1 L04      -0.0257
      6 C6         38.8209   31.7536   29.2395 C.ar        1 L04      -0.0571
      7 C7         35.0554   36.3681   23.4099 C.3         1 L04       0.0523
      8 C8         35.6425   35.7433   24.7168 C.3         1 L04      -0.0232
      9 C9         34.6023   35.3442   25.8092 C.3         1 L04      -0.0166
     10 C10        35.2169   34.4162   26.8016 C.ar        1 L04      -0.0424
     11 C11        36.1977   34.8841   27.7075 C.ar        1 L04      -0.0596
     12 C12        36.9000   33.9841   28.5314 C.ar        1 L04      -0.0610
     13 C13        36.6336   32.5955   28.4814 C.ar        1 L04      -0.0267
     14 C14        35.6216   32.1388   27.6035 C.ar        1 L04      -0.0610
     15 C15        34.9251   33.0351   26.7738 C.ar        1 L04      -0.0596
     16 C16        34.1012   37.4482   23.6733 C.2         1 L04       0.1816
     17 C17        39.5911   30.8002   29.9266 C.ar        1 L04      -0.0282
     18 C18        36.1477   36.7843   22.3590 C.3         1 L04      -0.0186
     19 C19        31.7396   38.2094   23.6256 C.3         1 L04       0.1369
     20 C20        30.7253   38.0207   22.4423 C.3         1 L04      -0.0096
     21 C21        31.2732   38.4357   21.0283 C.3         1 L04      -0.0425
     22 C22        31.4299   39.9840   20.8827 C.3         1 L04      -0.0625
     23 C23        38.8382   39.6946   21.7055 C.3         1 L04      -0.0495
     24 C24        38.3768   40.7155   22.7904 C.3         1 L04      -0.0323
     25 C25        37.2019   41.6670   22.3819 C.3         1 L04       0.0356
     26 C26        35.7227   41.3128   24.3362 C.2         1 L04       0.2046
     27 C27        31.0562   38.1241   24.9199 C.2         1 L04       0.2292
     28 C28        34.6755   41.7004   22.3316 C.3         1 L04       0.0703
     29 C29        34.4027   41.4576   24.6269 C.ar        1 L04       0.0535
     30 C30        29.0274   38.8757   26.0735 C.ar        1 L04       0.0663
     31 C31        27.8956   38.0302   26.1198 C.ar        1 L04      -0.0413
     32 C32        26.9073   38.2091   27.1087 C.ar        1 L04      -0.0755
     33 C33        27.0603   39.2063   28.0846 C.ar        1 L04      -0.0772
     34 C34        28.1822   40.0493   28.0528 C.ar        1 L04      -0.0755
     35 C35        29.1555   39.8897   27.0475 C.ar        1 L04      -0.0413
     36 C36        33.7258   41.7215   23.4407 C.ar        1 L04      -0.0003
     37 C37        33.7252   41.4444   25.8581 C.ar        1 L04      -0.0484
     38 C38        32.3531   42.0278   23.4446 C.ar        1 L04      -0.0524
     39 C39        31.6664   42.0328   24.6722 C.ar        1 L04      -0.0641
     40 C40        32.3433   41.7237   25.8728 C.ar        1 L04      -0.0630
     41 C41        38.9633   29.7497   30.6172 C.ar        1 L04       0.1322
     42 C42        37.5608   29.6518   30.6199 C.ar        1 L04      -0.0282
     43 C43        36.7866   30.6068   29.9359 C.ar        1 L04      -0.0571
     44 N1         35.9177   41.4538   23.0256 N.am        1 L04      -0.2613
     45 N18        32.7976   37.2430   23.4783 N.am        1 L04      -0.2649
     46 N29        29.9683   38.8691   25.0807 N.am        1 L04      -0.2320
     47 O1         36.5954   41.2190   25.1912 O.2         1 L04      -0.3882
     48 O4         38.4314   35.8441   23.8555 O.co2       1 L04      -0.5687
     49 O5         39.1373   37.9789   24.4100 O.co2       1 L04      -0.5687
     50 O17        34.5213   38.5456   24.0339 O.2         1 L04      -0.3966
     51 O28        31.4971   37.4261   25.8302 O.2         1 L04      -0.3823
     52 F1         39.6809   28.8622   31.2510 F           1 L04      -0.1835
     53 H1         38.5947   37.6549   21.0641 H           1 L04       0.0286
     54 H2         37.1724   38.6723   20.7894 H           1 L04       0.0286
     55 H3         36.7913   38.6193   23.3365 H           1 L04       0.0467
     56 H4         30.7430   38.1711   18.9224 H           1 L04       0.0232
     57 H5         29.3294   38.2660   20.0128 H           1 L04       0.0232
     58 H6         30.3267   36.7805   19.9481 H           1 L04       0.0232
     59 H7         39.2985   32.4941   28.7205 H           1 L04       0.0606
     60 H8         34.5118   35.5480   22.9193 H           1 L04       0.0541
     61 H9         36.3483   36.4501   25.1711 H           1 L04       0.0315
     62 H10        36.2103   34.8480   24.4154 H           1 L04       0.0315
     63 H11        33.7386   34.8786   25.3240 H           1 L04       0.0430
     64 H12        34.2412   36.2408   26.3299 H           1 L04       0.0430
     65 H13        36.4324   35.8819   27.7461 H           1 L04       0.0559
     66 H14        37.6204   34.3548   29.1567 H           1 L04       0.0604
     67 H15        35.4119   31.1408   27.5298 H           1 L04       0.0604
     68 H16        34.2347   32.6612   26.1146 H           1 L04       0.0559
     69 H17        40.6100   30.8672   29.9111 H           1 L04       0.0604
     70 H18        36.6435   35.8716   21.9936 H           1 L04       0.0313
     71 H19        35.6140   37.1937   21.4858 H           1 L04       0.0313
     72 H20        32.1763   39.2118   23.5595 H           1 L04       0.0805
     73 H21        29.8122   38.6011   22.6323 H           1 L04       0.0315
     74 H22        30.4377   36.9592   22.4315 H           1 L04       0.0315
     75 H23        32.2675   37.9841   20.9012 H           1 L04       0.0298
     76 H24        32.2440   40.3435   21.5267 H           1 L04       0.0232
     77 H25        30.4869   40.4900   21.1611 H           1 L04       0.0232
     78 H26        31.6836   40.2398   19.8396 H           1 L04       0.0232
     79 H27        38.8927   40.2054   20.7323 H           1 L04       0.0267
     80 H28        39.8612   39.3790   21.9611 H           1 L04       0.0267
     81 H29        39.2501   41.3505   23.0059 H           1 L04       0.0285
     82 H30        38.1252   40.1719   23.7071 H           1 L04       0.0285
     83 H31        37.0763   41.6273   21.2849 H           1 L04       0.0523
     84 H32        37.4976   42.6992   22.6274 H           1 L04       0.0523
     85 H33        34.4495   40.8960   21.6237 H           1 L04       0.0699
     86 H34        34.6912   42.6725   21.8236 H           1 L04       0.0699
     87 H35        27.7413   37.3223   25.4014 H           1 L04       0.0502
     88 H36        26.0696   37.6281   27.1050 H           1 L04       0.0577
     89 H37        26.3396   39.3425   28.7968 H           1 L04       0.0487
     90 H38        28.2914   40.7880   28.7549 H           1 L04       0.0577
     91 H39        29.9466   40.5398   27.0256 H           1 L04       0.0502
     92 H40        34.2249   41.2585   26.7294 H           1 L04       0.0651
     93 H41        31.8736   42.2758   22.5791 H           1 L04       0.0569
     94 H42        30.6759   42.2757   24.6936 H           1 L04       0.0635
     95 H43        31.8341   41.7341   26.7592 H           1 L04       0.0572
     96 H44        37.0986   28.8859   31.1113 H           1 L04       0.0604
     97 H45        35.7680   30.5253   29.9512 H           1 L04       0.0606
     98 H46        32.5404   36.3623   23.1400 H           1 L04       0.1883
     99 H47        29.7990   39.5085   24.3671 H           1 L04       0.2257
@<TRIPOS>BOND
     1     1    23   1
     2     1     2   1
     3     2    18   1
     4     2     3   1
     5     3    49  ar
     6     3    48  ar
     7    18     7   1
     8     7    16   1
     9     7     8   1
    10     8     9   1
    11     9    10   1
    12    10    15  ar
    13    10    11  ar
    14    11    12  ar
    15    12    13  ar
    16    13    14  ar
    17    13     5   1
    18     5    43  ar
    19     5     6  ar
    20     6    17  ar
    21    17    41  ar
    22    41    42  ar
    23    42    43  ar
    24    14    15  ar
    25    16    50   2
    26    16    45  am
    27    45    19   1
    28    19    27   1
    29    19    20   1
    30    20    21   1
    31    21     4   1
    32    21    22   1
    33    27    51   2
    34    27    46  am
    35    46    30   1
    36    30    35  ar
    37    30    31  ar
    38    31    32  ar
    39    32    33  ar
    40    33    34  ar
    41    34    35  ar
    42    23    24   1
    43    24    25   1
    44    25    44   1
    45    44    28   1
    46    44    26  am
    47    26    47   2
    48    26    29   1
    49    29    37  ar
    50    29    36  ar
    51    36    28   1
    52    36    38  ar
    53    38    39  ar
    54    39    40  ar
    55    40    37  ar
    56    41    52   1
    57     1    53   1
    58     1    54   1
    59     2    55   1
    60     4    56   1
    61     4    57   1
    62     4    58   1
    63     6    59   1
    64     7    60   1
    65     8    61   1
    66     8    62   1
    67     9    63   1
    68     9    64   1
    69    11    65   1
    70    12    66   1
    71    14    67   1
    72    15    68   1
    73    17    69   1
    74    18    70   1
    75    18    71   1
    76    19    72   1
    77    20    73   1
    78    20    74   1
    79    21    75   1
    80    22    76   1
    81    22    77   1
    82    22    78   1
    83    23    79   1
    84    23    80   1
    85    24    81   1
    86    24    82   1
    87    25    83   1
    88    25    84   1
    89    28    85   1
    90    28    86   1
    91    31    87   1
    92    32    88   1
    93    33    89   1
    94    34    90   1
    95    35    91   1
    96    37    92   1
    97    38    93   1
    98    39    94   1
    99    40    95   1
   100    42    96   1
   101    43    97   1
   102    45    98   1
   103    46    99   1
@<TRIPOS>SUBSTRUCTURE
     1  L04      1

