@<TRIPOS>MOLECULE
1hfs_ligand_094
    99   103
SMALL
GAST_HUCK
****
This file was generated by PARSER (from files_GN.cpp)

@<TRIPOS>ATOM
      1 C1         34.8760   36.5957   25.0992 C.3         1 L04      -0.0384
      2 C2         34.0519   37.7771   24.5089 C.3         1 L04       0.0141
      3 C3         32.6009   37.6022   24.7865 C.2         1 L04       0.0380
      4 C4         27.6540   40.4736   21.2384 C.3         1 L04      -0.0625
      5 C5         41.1580   39.2121   23.2516 C.ar        1 L04      -0.0257
      6 C6         42.1613   40.1294   22.8461 C.ar        1 L04      -0.0571
      7 C7         34.3686   39.6211   22.6404 C.3         1 L04       0.0523
      8 C8         34.7981   39.9505   21.1701 C.3         1 L04      -0.0232
      9 C9         36.0302   39.2040   20.5631 C.3         1 L04      -0.0166
     10 C10        37.3060   39.2208   21.3322 C.ar        1 L04      -0.0424
     11 C11        37.9508   38.0099   21.6765 C.ar        1 L04      -0.0596
     12 C12        39.2020   38.0124   22.3217 C.ar        1 L04      -0.0610
     13 C13        39.8596   39.2251   22.6486 C.ar        1 L04      -0.0267
     14 C14        39.2001   40.4357   22.3186 C.ar        1 L04      -0.0610
     15 C15        37.9507   40.4354   21.6622 C.ar        1 L04      -0.0596
     16 C16        33.0666   40.2579   22.8910 C.2         1 L04       0.1816
     17 C17        43.4506   40.1048   23.4164 C.ar        1 L04      -0.0282
     18 C18        34.3907   38.1039   23.0071 C.3         1 L04      -0.0186
     19 C19        30.5909   40.2071   22.4213 C.3         1 L04       0.1369
     20 C20        29.5817   39.0115   22.2209 C.3         1 L04      -0.0096
     21 C21        28.4750   39.1614   21.1249 C.3         1 L04      -0.0425
     22 C22        29.0222   38.9586   19.6871 C.3         1 L04      -0.0625
     23 C23        34.5271   35.1832   24.5364 C.3         1 L04      -0.0495
     24 C24        35.3740   34.0456   25.1691 C.3         1 L04      -0.0323
     25 C25        34.9551   33.6690   26.6205 C.3         1 L04       0.0356
     26 C26        37.0731   33.5606   27.8555 C.2         1 L04       0.2046
     27 C27        30.2591   41.0073   23.6050 C.2         1 L04       0.2292
     28 C28        36.0532   31.5479   27.4435 C.3         1 L04       0.0703
     29 C29        37.8856   32.6220   28.4040 C.ar        1 L04       0.0535
     30 C30        30.2118   41.0522   26.0401 C.ar        1 L04       0.0663
     31 C31        30.5590   42.4002   26.3162 C.ar        1 L04      -0.0413
     32 C32        30.4476   42.9200   27.6201 C.ar        1 L04      -0.0755
     33 C33        29.9944   42.1007   28.6703 C.ar        1 L04      -0.0772
     34 C34        29.6624   40.7567   28.4174 C.ar        1 L04      -0.0755
     35 C35        29.7825   40.2395   27.1132 C.ar        1 L04      -0.0413
     36 C36        37.3067   31.3759   28.1655 C.ar        1 L04      -0.0003
     37 C37        39.1074   32.7276   29.0996 C.ar        1 L04      -0.0484
     38 C38        37.9358   30.1947   28.5930 C.ar        1 L04      -0.0524
     39 C39        39.1626   30.2854   29.2835 C.ar        1 L04      -0.0641
     40 C40        39.7413   31.5476   29.5427 C.ar        1 L04      -0.0630
     41 C41        43.7672   39.1515   24.3989 C.ar        1 L04       0.1322
     42 C42        42.7924   38.2326   24.8149 C.ar        1 L04      -0.0282
     43 C43        41.5026   38.2654   24.2497 C.ar        1 L04      -0.0571
     44 N1         36.0142   32.9759   27.3090 N.am        1 L04      -0.2613
     45 N18        31.9472   39.7102   22.4255 N.am        1 L04      -0.2649
     46 N29        30.3419   40.4622   24.8146 N.am        1 L04      -0.2320
     47 O1         37.3208   34.7594   27.8537 O.2         1 L04      -0.3882
     48 O4         32.1623   37.5560   26.0718 O.co2       1 L04      -0.5687
     49 O5         31.7186   37.2148   23.8295 O.co2       1 L04      -0.5687
     50 O17        33.0456   41.3214   23.5083 O.2         1 L04      -0.3966
     51 O28        29.9476   42.1882   23.4659 O.2         1 L04      -0.3823
     52 F1         44.9607   39.1207   24.9165 F           1 L04      -0.1835
     53 H1         35.9384   36.7832   24.9161 H           1 L04       0.0286
     54 H2         34.7417   36.5941   26.1794 H           1 L04       0.0286
     55 H3         34.3536   38.6566   25.0955 H           1 L04       0.0467
     56 H4         26.7902   40.4333   20.5621 H           1 L04       0.0232
     57 H5         28.2611   41.3427   20.9645 H           1 L04       0.0232
     58 H6         27.2823   40.6078   22.2609 H           1 L04       0.0232
     59 H7         41.9711   40.8183   22.1097 H           1 L04       0.0606
     60 H8         35.1195   40.0961   23.2760 H           1 L04       0.0541
     61 H9         35.0004   41.0256   21.1027 H           1 L04       0.0315
     62 H10        33.9603   39.7456   20.4965 H           1 L04       0.0315
     63 H11        36.2348   39.6443   19.5788 H           1 L04       0.0430
     64 H12        35.7175   38.1728   20.3666 H           1 L04       0.0430
     65 H13        37.5262   37.1122   21.4396 H           1 L04       0.0559
     66 H14        39.6405   37.1111   22.5175 H           1 L04       0.0604
     67 H15        39.6227   41.3344   22.5489 H           1 L04       0.0604
     68 H16        37.5205   41.3316   21.4113 H           1 L04       0.0559
     69 H17        44.1534   40.7761   23.1031 H           1 L04       0.0604
     70 H18        33.7406   37.5412   22.3327 H           1 L04       0.0313
     71 H19        35.3952   37.7422   22.8201 H           1 L04       0.0313
     72 H20        30.5364   40.8458   21.5394 H           1 L04       0.0805
     73 H21        29.0753   38.7815   23.1618 H           1 L04       0.0315
     74 H22        30.1362   38.0991   21.9730 H           1 L04       0.0315
     75 H23        27.7643   38.3448   21.2967 H           1 L04       0.0298
     76 H24        29.5034   37.9801   19.5973 H           1 L04       0.0232
     77 H25        29.7517   39.7327   19.4310 H           1 L04       0.0232
     78 H26        28.2018   38.9991   18.9632 H           1 L04       0.0232
     79 H27        34.7048   35.1813   23.4534 H           1 L04       0.0267
     80 H28        33.4691   34.9627   24.6976 H           1 L04       0.0267
     81 H29        36.4304   34.3358   25.1380 H           1 L04       0.0285
     82 H30        35.2722   33.1474   24.5464 H           1 L04       0.0285
     83 H31        34.0575   33.0406   26.5724 H           1 L04       0.0523
     84 H32        34.6841   34.5520   27.2009 H           1 L04       0.0523
     85 H33        36.0922   31.0614   26.4652 H           1 L04       0.0699
     86 H34        35.2064   31.1729   28.0255 H           1 L04       0.0699
     87 H35        30.9244   43.0047   25.5768 H           1 L04       0.0502
     88 H36        30.7056   43.8919   27.8119 H           1 L04       0.0577
     89 H37        29.9096   42.4789   29.6186 H           1 L04       0.0487
     90 H38        29.3431   40.1594   29.1814 H           1 L04       0.0577
     91 H39        29.5441   39.2549   26.9500 H           1 L04       0.0502
     92 H40        39.5275   33.6414   29.2757 H           1 L04       0.0651
     93 H41        37.5132   29.2886   28.3969 H           1 L04       0.0569
     94 H42        39.6334   29.4355   29.5962 H           1 L04       0.0635
     95 H43        40.6289   31.6090   30.0436 H           1 L04       0.0572
     96 H44        43.0129   37.5341   25.5294 H           1 L04       0.0604
     97 H45        40.8077   37.5905   24.5899 H           1 L04       0.0606
     98 H46        32.0789   38.8970   21.9153 H           1 L04       0.1883
     99 H47        30.5014   39.5078   24.8418 H           1 L04       0.2257
@<TRIPOS>BOND
     1     1    23   1
     2     1     2   1
     3     2    18   1
     4     2     3   1
     5     3    49  ar
     6     3    48  ar
     7    18     7   1
     8     7    16   1
     9     7     8   1
    10     8     9   1
    11     9    10   1
    12    10    15  ar
    13    10    11  ar
    14    11    12  ar
    15    12    13  ar
    16    13    14  ar
    17    13     5   1
    18     5    43  ar
    19     5     6  ar
    20     6    17  ar
    21    17    41  ar
    22    41    42  ar
    23    42    43  ar
    24    14    15  ar
    25    16    50   2
    26    16    45  am
    27    45    19   1
    28    19    27   1
    29    19    20   1
    30    20    21   1
    31    21     4   1
    32    21    22   1
    33    27    51   2
    34    27    46  am
    35    46    30   1
    36    30    35  ar
    37    30    31  ar
    38    31    32  ar
    39    32    33  ar
    40    33    34  ar
    41    34    35  ar
    42    23    24   1
    43    24    25   1
    44    25    44   1
    45    44    28   1
    46    44    26  am
    47    26    47   2
    48    26    29   1
    49    29    37  ar
    50    29    36  ar
    51    36    28   1
    52    36    38  ar
    53    38    39  ar
    54    39    40  ar
    55    40    37  ar
    56    41    52   1
    57     1    53   1
    58     1    54   1
    59     2    55   1
    60     4    56   1
    61     4    57   1
    62     4    58   1
    63     6    59   1
    64     7    60   1
    65     8    61   1
    66     8    62   1
    67     9    63   1
    68     9    64   1
    69    11    65   1
    70    12    66   1
    71    14    67   1
    72    15    68   1
    73    17    69   1
    74    18    70   1
    75    18    71   1
    76    19    72   1
    77    20    73   1
    78    20    74   1
    79    21    75   1
    80    22    76   1
    81    22    77   1
    82    22    78   1
    83    23    79   1
    84    23    80   1
    85    24    81   1
    86    24    82   1
    87    25    83   1
    88    25    84   1
    89    28    85   1
    90    28    86   1
    91    31    87   1
    92    32    88   1
    93    33    89   1
    94    34    90   1
    95    35    91   1
    96    37    92   1
    97    38    93   1
    98    39    94   1
    99    40    95   1
   100    42    96   1
   101    43    97   1
   102    45    98   1
   103    46    99   1
@<TRIPOS>SUBSTRUCTURE
     1  L04      1

