@<TRIPOS>MOLECULE
1hfs_ligand_071
    99   103
SMALL
GAST_HUCK
****
This file was generated by PARSER (from files_GN.cpp)

@<TRIPOS>ATOM
      1 C1         29.4956   40.7534   27.7052 C.3         1 L04      -0.0384
      2 C2         30.0663   41.2844   26.3348 C.3         1 L04       0.0141
      3 C3         30.0617   42.7764   26.2824 C.2         1 L04       0.0380
      4 C4         24.6179   39.4087   20.5386 C.3         1 L04      -0.0625
      5 C5         37.5536   40.7148   21.1127 C.ar        1 L04      -0.0257
      6 C6         38.5586   41.6645   21.4332 C.ar        1 L04      -0.0571
      7 C7         29.9440   40.7819   23.6316 C.3         1 L04       0.0523
      8 C8         31.4990   40.9112   23.4998 C.3         1 L04      -0.0232
      9 C9         31.9617   41.6117   22.1902 C.3         1 L04      -0.0166
     10 C10        33.4065   41.4408   21.8893 C.ar        1 L04      -0.0424
     11 C11        33.8294   40.9240   20.6438 C.ar        1 L04      -0.0596
     12 C12        35.1957   40.7090   20.3827 C.ar        1 L04      -0.0610
     13 C13        36.1791   40.9917   21.3592 C.ar        1 L04      -0.0267
     14 C14        35.7527   41.5457   22.5920 C.ar        1 L04      -0.0610
     15 C15        34.3911   41.7802   22.8475 C.ar        1 L04      -0.0596
     16 C16        29.4598   39.7490   22.7002 C.2         1 L04       0.1816
     17 C17        39.9110   41.4011   21.1605 C.ar        1 L04      -0.0282
     18 C18        29.4333   40.5346   25.0967 C.3         1 L04      -0.0186
     19 C19        28.6114   39.1978   20.4248 C.3         1 L04       0.1369
     20 C20        27.1176   39.3386   19.9900 C.3         1 L04      -0.0096
     21 C21        26.0411   39.1492   21.1065 C.3         1 L04      -0.0425
     22 C22        26.0904   37.7506   21.7876 C.3         1 L04      -0.0625
     23 C23        27.9494   40.6443   27.8902 C.3         1 L04      -0.0495
     24 C24        27.1285   41.9295   27.5585 C.3         1 L04      -0.0323
     25 C25        25.7015   41.6530   27.0080 C.3         1 L04       0.0356
     26 C26        24.8497   39.5440   27.9376 C.2         1 L04       0.2046
     27 C27        29.4972   39.4597   19.2856 C.2         1 L04       0.2292
     28 C28        24.0618   41.4716   28.9046 C.3         1 L04       0.0703
     29 C29        24.0496   39.1487   28.9563 C.ar        1 L04       0.0535
     30 C30        30.3914   38.5745   17.1906 C.ar        1 L04       0.0663
     31 C31        30.9271   37.3404   16.7494 C.ar        1 L04      -0.0413
     32 C32        31.7453   37.2756   15.6049 C.ar        1 L04      -0.0755
     33 C33        32.0307   38.4382   14.8755 C.ar        1 L04      -0.0772
     34 C34        31.4781   39.6696   15.2765 C.ar        1 L04      -0.0755
     35 C35        30.6613   39.7301   16.4242 C.ar        1 L04      -0.0413
     36 C36        23.5409   40.2859   29.5766 C.ar        1 L04      -0.0003
     37 C37        23.7331   37.8644   29.4253 C.ar        1 L04      -0.0484
     38 C38        22.6862   40.1804   30.6901 C.ar        1 L04      -0.0524
     39 C39        22.3576   38.8960   31.1681 C.ar        1 L04      -0.0641
     40 C40        22.8762   37.7450   30.5380 C.ar        1 L04      -0.0630
     41 C41        40.2890   40.1838   20.5655 C.ar        1 L04       0.1322
     42 C42        39.3059   39.2273   20.2460 C.ar        1 L04      -0.0282
     43 C43        37.9547   39.4918   20.5215 C.ar        1 L04      -0.0571
     44 N1         24.8982   40.8693   27.9032 N.am        1 L04      -0.2613
     45 N18        28.9123   40.0783   21.5314 N.am        1 L04      -0.2649
     46 N29        29.6230   38.5411   18.3252 N.am        1 L04      -0.2320
     47 O1         25.4536   38.7776   27.1987 O.2         1 L04      -0.3882
     48 O4         30.1150   43.4735   25.1217 O.co2       1 L04      -0.5687
     49 O5         30.3842   43.4814   27.3941 O.co2       1 L04      -0.5687
     50 O17        29.7173   38.5791   22.9570 O.2         1 L04      -0.3966
     51 O28        30.1334   40.5056   19.2496 O.2         1 L04      -0.3823
     52 F1         41.5432   39.9416   20.3094 F           1 L04      -0.1835
     53 H1         29.8827   39.7341   27.8338 H           1 L04       0.0286
     54 H2         29.9040   41.3347   28.5406 H           1 L04       0.0286
     55 H3         31.1270   41.0149   26.3570 H           1 L04       0.0467
     56 H4         23.8699   39.3396   21.3322 H           1 L04       0.0232
     57 H5         24.3715   38.6780   19.7641 H           1 L04       0.0232
     58 H6         24.5571   40.4074   20.1031 H           1 L04       0.0232
     59 H7         38.3092   42.5683   21.8445 H           1 L04       0.0606
     60 H8         29.5075   41.7360   23.3169 H           1 L04       0.0541
     61 H9         31.9581   39.9197   23.5708 H           1 L04       0.0315
     62 H10        31.8905   41.5088   24.3225 H           1 L04       0.0315
     63 H11        31.7502   42.6771   22.2801 H           1 L04       0.0430
     64 H12        31.3595   41.2403   21.3573 H           1 L04       0.0430
     65 H13        33.1475   40.6907   19.9176 H           1 L04       0.0559
     66 H14        35.4598   40.3342   19.4694 H           1 L04       0.0604
     67 H15        36.4284   41.7499   23.3333 H           1 L04       0.0604
     68 H16        34.1218   42.1728   23.7534 H           1 L04       0.0559
     69 H17        40.6208   42.1028   21.3872 H           1 L04       0.0604
     70 H18        28.3655   40.7799   25.0772 H           1 L04       0.0313
     71 H19        29.5223   39.4636   25.3092 H           1 L04       0.0313
     72 H20        28.7741   38.1565   20.7180 H           1 L04       0.0805
     73 H21        26.9162   38.6184   19.1899 H           1 L04       0.0315
     74 H22        26.9838   40.3406   19.5694 H           1 L04       0.0315
     75 H23        26.2228   39.9033   21.8820 H           1 L04       0.0298
     76 H24        27.0463   37.5955   22.2872 H           1 L04       0.0232
     77 H25        25.9441   36.9600   21.0483 H           1 L04       0.0232
     78 H26        25.3074   37.6739   22.5448 H           1 L04       0.0232
     79 H27        27.7530   40.3750   28.9327 H           1 L04       0.0267
     80 H28        27.5995   39.8008   27.2888 H           1 L04       0.0267
     81 H29        27.6514   42.5134   26.7932 H           1 L04       0.0285
     82 H30        27.0592   42.5542   28.4605 H           1 L04       0.0285
     83 H31        25.7845   41.1577   26.0362 H           1 L04       0.0523
     84 H32        25.2090   42.6150   26.8246 H           1 L04       0.0523
     85 H33        23.2594   42.0598   28.4519 H           1 L04       0.0699
     86 H34        24.6453   42.0822   29.5936 H           1 L04       0.0699
     87 H35        30.7326   36.4833   17.2696 H           1 L04       0.0502
     88 H36        32.1370   36.3822   15.3068 H           1 L04       0.0577
     89 H37        32.6212   38.3922   14.0423 H           1 L04       0.0487
     90 H38        31.6656   40.5164   14.7326 H           1 L04       0.0577
     91 H39        30.2430   40.6319   16.6681 H           1 L04       0.0502
     92 H40        24.1135   37.0356   28.9618 H           1 L04       0.0651
     93 H41        22.3145   41.0192   31.1414 H           1 L04       0.0569
     94 H42        21.7457   38.7958   31.9784 H           1 L04       0.0635
     95 H43        22.6246   36.8188   30.8810 H           1 L04       0.0572
     96 H44        39.5737   38.3419   19.8136 H           1 L04       0.0604
     97 H45        37.2627   38.7733   20.2886 H           1 L04       0.0606
     98 H46        28.7867   41.0278   21.3621 H           1 L04       0.1883
     99 H47        29.1497   37.7065   18.4770 H           1 L04       0.2257
@<TRIPOS>BOND
     1     1    23   1
     2     1     2   1
     3     2    18   1
     4     2     3   1
     5     3    49  ar
     6     3    48  ar
     7    18     7   1
     8     7    16   1
     9     7     8   1
    10     8     9   1
    11     9    10   1
    12    10    15  ar
    13    10    11  ar
    14    11    12  ar
    15    12    13  ar
    16    13    14  ar
    17    13     5   1
    18     5    43  ar
    19     5     6  ar
    20     6    17  ar
    21    17    41  ar
    22    41    42  ar
    23    42    43  ar
    24    14    15  ar
    25    16    50   2
    26    16    45  am
    27    45    19   1
    28    19    27   1
    29    19    20   1
    30    20    21   1
    31    21     4   1
    32    21    22   1
    33    27    51   2
    34    27    46  am
    35    46    30   1
    36    30    35  ar
    37    30    31  ar
    38    31    32  ar
    39    32    33  ar
    40    33    34  ar
    41    34    35  ar
    42    23    24   1
    43    24    25   1
    44    25    44   1
    45    44    28   1
    46    44    26  am
    47    26    47   2
    48    26    29   1
    49    29    37  ar
    50    29    36  ar
    51    36    28   1
    52    36    38  ar
    53    38    39  ar
    54    39    40  ar
    55    40    37  ar
    56    41    52   1
    57     1    53   1
    58     1    54   1
    59     2    55   1
    60     4    56   1
    61     4    57   1
    62     4    58   1
    63     6    59   1
    64     7    60   1
    65     8    61   1
    66     8    62   1
    67     9    63   1
    68     9    64   1
    69    11    65   1
    70    12    66   1
    71    14    67   1
    72    15    68   1
    73    17    69   1
    74    18    70   1
    75    18    71   1
    76    19    72   1
    77    20    73   1
    78    20    74   1
    79    21    75   1
    80    22    76   1
    81    22    77   1
    82    22    78   1
    83    23    79   1
    84    23    80   1
    85    24    81   1
    86    24    82   1
    87    25    83   1
    88    25    84   1
    89    28    85   1
    90    28    86   1
    91    31    87   1
    92    32    88   1
    93    33    89   1
    94    34    90   1
    95    35    91   1
    96    37    92   1
    97    38    93   1
    98    39    94   1
    99    40    95   1
   100    42    96   1
   101    43    97   1
   102    45    98   1
   103    46    99   1
@<TRIPOS>SUBSTRUCTURE
     1  L04      1

