@<TRIPOS>MOLECULE
1hfs_ligand_096
    99   103
SMALL
GAST_HUCK
****
This file was generated by PARSER (from files_GN.cpp)

@<TRIPOS>ATOM
      1 C1         38.9645   38.4620   21.8719 C.3         1 L04      -0.0384
      2 C2         37.4421   38.6198   22.1801 C.3         1 L04       0.0141
      3 C3         36.6311   38.0671   21.0629 C.2         1 L04       0.0380
      4 C4         33.9866   33.7323   25.0410 C.3         1 L04      -0.0625
      5 C5         28.6622   39.9894   21.0600 C.ar        1 L04      -0.0257
      6 C6         27.6986   40.1033   22.0960 C.ar        1 L04      -0.0571
      7 C7         35.6607   40.2410   23.4348 C.3         1 L04       0.0523
      8 C8         34.8652   41.5538   23.1081 C.3         1 L04      -0.0232
      9 C9         34.1801   41.6965   21.7088 C.3         1 L04      -0.0166
     10 C10        32.7757   41.1948   21.6013 C.ar        1 L04      -0.0424
     11 C11        32.4294   40.1382   20.7296 C.ar        1 L04      -0.0596
     12 C12        31.0963   39.7093   20.5904 C.ar        1 L04      -0.0610
     13 C13        30.0361   40.3682   21.2679 C.ar        1 L04      -0.0267
     14 C14        30.3898   41.4308   22.1342 C.ar        1 L04      -0.0610
     15 C15        31.7304   41.8265   22.3102 C.ar        1 L04      -0.0596
     16 C16        34.8142   39.0537   23.5042 C.2         1 L04       0.1816
     17 C17        26.3650   39.6997   21.9067 C.ar        1 L04      -0.0282
     18 C18        36.9834   40.0669   22.5878 C.3         1 L04      -0.0186
     19 C19        34.4695   36.8115   24.4927 C.3         1 L04       0.1369
     20 C20        35.4363   35.8848   25.3136 C.3         1 L04      -0.0096
     21 C21        35.4078   34.3542   24.9931 C.3         1 L04      -0.0425
     22 C22        36.1213   34.0047   23.6535 C.3         1 L04      -0.0625
     23 C23        39.5656   39.3805   20.7647 C.3         1 L04      -0.0495
     24 C24        40.9847   38.9195   20.3196 C.3         1 L04      -0.0323
     25 C25        41.7644   40.0387   19.5683 C.3         1 L04       0.0356
     26 C26        43.1725   38.6226   18.0915 C.2         1 L04       0.2046
     27 C27        33.1044   36.9321   24.9986 C.2         1 L04       0.2292
     28 C28        44.2744   40.1400   19.4106 C.3         1 L04       0.0703
     29 C29        44.4954   38.4555   17.8040 C.ar        1 L04       0.0535
     30 C30        30.7886   37.4569   24.3932 C.ar        1 L04       0.0663
     31 C31        30.2791   37.9683   25.6126 C.ar        1 L04      -0.0413
     32 C32        28.9055   38.2292   25.7618 C.ar        1 L04      -0.0755
     33 C33        28.0275   38.0177   24.6857 C.ar        1 L04      -0.0772
     34 C34        28.5324   37.5652   23.4566 C.ar        1 L04      -0.0755
     35 C35        29.8974   37.2789   23.3127 C.ar        1 L04      -0.0413
     36 C36        45.2053   39.3574   18.5918 C.ar        1 L04      -0.0003
     37 C37        45.1484   37.5751   16.9209 C.ar        1 L04      -0.0484
     38 C38        46.6105   39.4071   18.5148 C.ar        1 L04      -0.0524
     39 C39        47.2819   38.5377   17.6317 C.ar        1 L04      -0.0641
     40 C40        46.5555   37.6240   16.8353 C.ar        1 L04      -0.0630
     41 C41        25.9612   39.1558   20.6755 C.ar        1 L04       0.1322
     42 C42        26.8899   39.0435   19.6259 C.ar        1 L04      -0.0282
     43 C43        28.2187   39.4617   19.8157 C.ar        1 L04      -0.0571
     44 N1         43.0147   39.5624   19.0213 N.am        1 L04      -0.2613
     45 N18        35.0223   38.1405   24.4536 N.am        1 L04      -0.2649
     46 N29        32.1072   37.1648   24.1524 N.am        1 L04      -0.2320
     47 O1         42.2593   37.9820   17.5839 O.2         1 L04      -0.3882
     48 O4         36.3938   38.7902   19.9438 O.co2       1 L04      -0.5687
     49 O5         36.0639   36.8404   21.1572 O.co2       1 L04      -0.5687
     50 O17        34.0830   38.7824   22.5637 O.2         1 L04      -0.3966
     51 O28        32.9330   36.9049   26.2130 O.2         1 L04      -0.3823
     52 F1         24.7329   38.7543   20.5078 F           1 L04      -0.1835
     53 H1         39.5160   38.6622   22.8012 H           1 L04       0.0286
     54 H2         39.1572   37.4142   21.6107 H           1 L04       0.0286
     55 H3         37.2763   37.9760   23.0476 H           1 L04       0.0467
     56 H4         34.0489   32.6414   24.9838 H           1 L04       0.0232
     57 H5         33.3793   34.0911   24.2060 H           1 L04       0.0232
     58 H6         33.4922   33.9949   25.9793 H           1 L04       0.0232
     59 H7         27.9578   40.4683   23.0155 H           1 L04       0.0606
     60 H8         36.0057   40.4074   24.4622 H           1 L04       0.0541
     61 H9         35.5775   42.3809   23.2038 H           1 L04       0.0315
     62 H10        34.1171   41.7163   23.8890 H           1 L04       0.0315
     63 H11        34.8027   41.2234   20.9460 H           1 L04       0.0430
     64 H12        34.1565   42.7606   21.4485 H           1 L04       0.0430
     65 H13        33.1545   39.6505   20.2015 H           1 L04       0.0559
     66 H14        30.9136   38.9141   19.9740 H           1 L04       0.0604
     67 H15        29.6700   41.9613   22.6320 H           1 L04       0.0604
     68 H16        31.9295   42.6054   22.9351 H           1 L04       0.0559
     69 H17        25.7013   39.7688   22.6813 H           1 L04       0.0604
     70 H18        36.9311   40.6692   21.6797 H           1 L04       0.0313
     71 H19        37.7958   40.5078   23.1716 H           1 L04       0.0313
     72 H20        34.4561   36.4167   23.4722 H           1 L04       0.0805
     73 H21        35.2449   36.0166   26.3840 H           1 L04       0.0315
     74 H22        36.4674   36.2198   25.1531 H           1 L04       0.0315
     75 H23        35.9881   33.8626   25.7830 H           1 L04       0.0298
     76 H24        37.1500   34.3774   23.6655 H           1 L04       0.0232
     77 H25        35.5980   34.4420   22.7993 H           1 L04       0.0232
     78 H26        36.1559   32.9189   23.5236 H           1 L04       0.0232
     79 H27        39.6087   40.4059   21.1597 H           1 L04       0.0267
     80 H28        38.9215   39.3789   19.8799 H           1 L04       0.0267
     81 H29        40.8756   38.0472   19.6637 H           1 L04       0.0285
     82 H30        41.5878   38.6212   21.1944 H           1 L04       0.0285
     83 H31        41.9450   40.8599   20.2775 H           1 L04       0.0523
     84 H32        41.1639   40.4505   18.7509 H           1 L04       0.0523
     85 H33        44.4760   39.9990   20.4784 H           1 L04       0.0699
     86 H34        44.3222   41.2033   19.1474 H           1 L04       0.0699
     87 H35        30.8907   38.1908   26.3965 H           1 L04       0.0502
     88 H36        28.5456   38.5810   26.6483 H           1 L04       0.0577
     89 H37        27.0340   38.2233   24.7850 H           1 L04       0.0487
     90 H38        27.9017   37.4271   22.6701 H           1 L04       0.0577
     91 H39        30.2501   36.9502   22.4091 H           1 L04       0.0502
     92 H40        44.6201   36.9067   16.3534 H           1 L04       0.0651
     93 H41        47.1362   40.0535   19.0984 H           1 L04       0.0569
     94 H42        48.3016   38.5574   17.5699 H           1 L04       0.0635
     95 H43        47.0480   36.9899   16.2106 H           1 L04       0.0572
     96 H44        26.6040   38.6523   18.7257 H           1 L04       0.0604
     97 H45        28.8594   39.3811   19.0220 H           1 L04       0.0606
     98 H46        35.6901   38.3550   25.1308 H           1 L04       0.1883
     99 H47        32.3526   37.1011   23.2131 H           1 L04       0.2257
@<TRIPOS>BOND
     1     1    23   1
     2     1     2   1
     3     2    18   1
     4     2     3   1
     5     3    49  ar
     6     3    48  ar
     7    18     7   1
     8     7    16   1
     9     7     8   1
    10     8     9   1
    11     9    10   1
    12    10    15  ar
    13    10    11  ar
    14    11    12  ar
    15    12    13  ar
    16    13    14  ar
    17    13     5   1
    18     5    43  ar
    19     5     6  ar
    20     6    17  ar
    21    17    41  ar
    22    41    42  ar
    23    42    43  ar
    24    14    15  ar
    25    16    50   2
    26    16    45  am
    27    45    19   1
    28    19    27   1
    29    19    20   1
    30    20    21   1
    31    21     4   1
    32    21    22   1
    33    27    51   2
    34    27    46  am
    35    46    30   1
    36    30    35  ar
    37    30    31  ar
    38    31    32  ar
    39    32    33  ar
    40    33    34  ar
    41    34    35  ar
    42    23    24   1
    43    24    25   1
    44    25    44   1
    45    44    28   1
    46    44    26  am
    47    26    47   2
    48    26    29   1
    49    29    37  ar
    50    29    36  ar
    51    36    28   1
    52    36    38  ar
    53    38    39  ar
    54    39    40  ar
    55    40    37  ar
    56    41    52   1
    57     1    53   1
    58     1    54   1
    59     2    55   1
    60     4    56   1
    61     4    57   1
    62     4    58   1
    63     6    59   1
    64     7    60   1
    65     8    61   1
    66     8    62   1
    67     9    63   1
    68     9    64   1
    69    11    65   1
    70    12    66   1
    71    14    67   1
    72    15    68   1
    73    17    69   1
    74    18    70   1
    75    18    71   1
    76    19    72   1
    77    20    73   1
    78    20    74   1
    79    21    75   1
    80    22    76   1
    81    22    77   1
    82    22    78   1
    83    23    79   1
    84    23    80   1
    85    24    81   1
    86    24    82   1
    87    25    83   1
    88    25    84   1
    89    28    85   1
    90    28    86   1
    91    31    87   1
    92    32    88   1
    93    33    89   1
    94    34    90   1
    95    35    91   1
    96    37    92   1
    97    38    93   1
    98    39    94   1
    99    40    95   1
   100    42    96   1
   101    43    97   1
   102    45    98   1
   103    46    99   1
@<TRIPOS>SUBSTRUCTURE
     1  L04      1

