@<TRIPOS>MOLECULE
1hfs_ligand_058
    99   103
SMALL
GAST_HUCK
****
This file was generated by PARSER (from files_GN.cpp)

@<TRIPOS>ATOM
      1 C1         30.7318   40.6975   19.8456 C.3         1 L04      -0.0384
      2 C2         30.2684   40.4104   21.3139 C.3         1 L04       0.0141
      3 C3         30.8219   41.4324   22.2406 C.2         1 L04       0.0380
      4 C4         25.3371   36.7941   21.5536 C.3         1 L04      -0.0625
      5 C5         35.6501   34.2363   27.3059 C.ar        1 L04      -0.0257
      6 C6         35.3529   32.8570   27.4460 C.ar        1 L04      -0.0571
      7 C7         30.1559   38.4083   23.1720 C.3         1 L04       0.0523
      8 C8         31.2443   38.3612   24.3001 C.3         1 L04      -0.0232
      9 C9         32.6403   37.7935   23.8799 C.3         1 L04      -0.0166
     10 C10        33.2976   36.8620   24.8433 C.ar        1 L04      -0.0424
     11 C11        33.4001   35.4814   24.5534 C.ar        1 L04      -0.0596
     12 C12        34.1375   34.6188   25.3813 C.ar        1 L04      -0.0610
     13 C13        34.8111   35.1040   26.5300 C.ar        1 L04      -0.0267
     14 C14        34.6750   36.4841   26.8407 C.ar        1 L04      -0.0610
     15 C15        33.9299   37.3467   26.0148 C.ar        1 L04      -0.0596
     16 C16        28.9069   39.0461   23.5934 C.2         1 L04       0.1816
     17 C17        36.1806   31.9952   28.1918 C.ar        1 L04      -0.0282
     18 C18        30.6413   38.9540   21.7689 C.3         1 L04      -0.0186
     19 C19        26.5405   39.4255   22.9282 C.3         1 L04       0.1369
     20 C20        25.9731   39.3314   21.4656 C.3         1 L04      -0.0096
     21 C21        25.9921   37.9432   20.7408 C.3         1 L04      -0.0425
     22 C22        25.3455   38.0178   19.3310 C.3         1 L04      -0.0625
     23 C23        29.9435   39.9214   18.7356 C.3         1 L04      -0.0495
     24 C24        28.9283   40.7932   17.9286 C.3         1 L04      -0.0323
     25 C25        29.5423   41.8504   16.9652 C.3         1 L04       0.0356
     26 C26        31.1405   40.7007   15.4839 C.2         1 L04       0.2046
     27 C27        25.6112   39.0847   24.0105 C.2         1 L04       0.2292
     28 C28        29.1676   41.3559   14.5173 C.3         1 L04       0.0703
     29 C29        31.2043   40.2725   14.1966 C.ar        1 L04       0.0535
     30 C30        25.2686   39.0536   26.4087 C.ar        1 L04       0.0663
     31 C31        24.1672   39.8971   26.6898 C.ar        1 L04      -0.0413
     32 C32        23.4670   39.7741   27.9046 C.ar        1 L04      -0.0755
     33 C33        23.8546   38.8063   28.8479 C.ar        1 L04      -0.0772
     34 C34        24.9568   37.9717   28.5859 C.ar        1 L04      -0.0755
     35 C35        25.6709   38.1104   27.3763 C.ar        1 L04      -0.0413
     36 C36        30.0338   40.6705   13.5582 C.ar        1 L04      -0.0003
     37 C37        32.1935   39.5446   13.5051 C.ar        1 L04      -0.0484
     38 C38        29.8306   40.3954   12.1912 C.ar        1 L04      -0.0524
     39 C39        30.8064   39.6601   11.4886 C.ar        1 L04      -0.0641
     40 C40        31.9743   39.2211   12.1498 C.ar        1 L04      -0.0630
     41 C41        37.3417   32.4983   28.8039 C.ar        1 L04       0.1322
     42 C42        37.6743   33.8566   28.6656 C.ar        1 L04      -0.0282
     43 C43        36.8345   34.7158   27.9283 C.ar        1 L04      -0.0571
     44 N1         29.9717   41.2944   15.7050 N.am        1 L04      -0.2613
     45 N18        27.7688   38.6753   23.0112 N.am        1 L04      -0.2649
     46 N29        26.0221   39.1644   25.2718 N.am        1 L04      -0.2320
     47 O1         32.0404   40.5449   16.2997 O.2         1 L04      -0.3882
     48 O4         29.9975   42.1180   23.0669 O.co2       1 L04      -0.5687
     49 O5         32.1324   41.7651   22.2241 O.co2       1 L04      -0.5687
     50 O17        28.9401   40.0393   24.3134 O.2         1 L04      -0.3966
     51 O28        24.4501   38.8016   23.7645 O.2         1 L04      -0.3823
     52 F1         38.1175   31.6971   29.4867 F           1 L04      -0.1835
     53 H1         30.6652   41.7749   19.6523 H           1 L04       0.0286
     54 H2         31.7963   40.4467   19.7545 H           1 L04       0.0286
     55 H3         29.1769   40.5097   21.3265 H           1 L04       0.0467
     56 H4         25.3715   35.8589   20.9935 H           1 L04       0.0232
     57 H5         24.2936   37.0297   21.7732 H           1 L04       0.0232
     58 H6         25.8714   36.6386   22.4903 H           1 L04       0.0232
     59 H7         34.5172   32.4553   27.0138 H           1 L04       0.0606
     60 H8         29.9190   37.3469   23.0220 H           1 L04       0.0541
     61 H9         30.8462   37.7299   25.1065 H           1 L04       0.0315
     62 H10        31.3849   39.3638   24.7264 H           1 L04       0.0315
     63 H11        33.3169   38.6418   23.7197 H           1 L04       0.0430
     64 H12        32.5415   37.2968   22.9102 H           1 L04       0.0430
     65 H13        32.9596   35.0973   23.7131 H           1 L04       0.0559
     66 H14        34.2260   33.6379   25.0978 H           1 L04       0.0604
     67 H15        35.1245   36.8776   27.6707 H           1 L04       0.0604
     68 H16        33.8728   38.3394   26.2588 H           1 L04       0.0559
     69 H17        35.9358   31.0059   28.2844 H           1 L04       0.0604
     70 H18        31.7279   38.8560   21.6918 H           1 L04       0.0313
     71 H19        30.2373   38.2689   21.0205 H           1 L04       0.0313
     72 H20        26.7665   40.4862   23.0819 H           1 L04       0.0805
     73 H21        26.5628   40.0221   20.8535 H           1 L04       0.0315
     74 H22        24.9523   39.7247   21.4534 H           1 L04       0.0315
     75 H23        27.0372   37.6807   20.5717 H           1 L04       0.0298
     76 H24        25.8084   38.8138   18.7472 H           1 L04       0.0232
     77 H25        24.2742   38.2194   19.4103 H           1 L04       0.0232
     78 H26        25.4874   37.0755   18.7977 H           1 L04       0.0232
     79 H27        29.3850   39.0921   19.1833 H           1 L04       0.0267
     80 H28        30.6607   39.4768   18.0339 H           1 L04       0.0267
     81 H29        28.2665   41.3074   18.6366 H           1 L04       0.0285
     82 H30        28.3020   40.1182   17.3334 H           1 L04       0.0285
     83 H31        30.3683   42.3741   17.4554 H           1 L04       0.0523
     84 H32        28.7727   42.6075   16.7753 H           1 L04       0.0523
     85 H33        28.9880   42.3897   14.2141 H           1 L04       0.0699
     86 H34        28.2292   40.8145   14.6449 H           1 L04       0.0699
     87 H35        23.8860   40.6216   26.0296 H           1 L04       0.0502
     88 H36        22.6885   40.3988   28.1071 H           1 L04       0.0577
     89 H37        23.3449   38.7147   29.7313 H           1 L04       0.0487
     90 H38        25.2475   37.2802   29.2785 H           1 L04       0.0577
     91 H39        26.4761   37.5061   27.1990 H           1 L04       0.0502
     92 H40        33.0430   39.2344   13.9835 H           1 L04       0.0651
     93 H41        28.9827   40.7125   11.7157 H           1 L04       0.0569
     94 H42        30.6686   39.4389   10.5027 H           1 L04       0.0635
     95 H43        32.6682   38.6720   11.6412 H           1 L04       0.0572
     96 H44        38.5250   34.2242   29.0975 H           1 L04       0.0604
     97 H45        37.1230   35.6902   27.8293 H           1 L04       0.0606
     98 H46        27.8262   37.8768   22.4696 H           1 L04       0.1883
     99 H47        26.9764   39.2729   25.4125 H           1 L04       0.2257
@<TRIPOS>BOND
     1     1    23   1
     2     1     2   1
     3     2    18   1
     4     2     3   1
     5     3    49  ar
     6     3    48  ar
     7    18     7   1
     8     7    16   1
     9     7     8   1
    10     8     9   1
    11     9    10   1
    12    10    15  ar
    13    10    11  ar
    14    11    12  ar
    15    12    13  ar
    16    13    14  ar
    17    13     5   1
    18     5    43  ar
    19     5     6  ar
    20     6    17  ar
    21    17    41  ar
    22    41    42  ar
    23    42    43  ar
    24    14    15  ar
    25    16    50   2
    26    16    45  am
    27    45    19   1
    28    19    27   1
    29    19    20   1
    30    20    21   1
    31    21     4   1
    32    21    22   1
    33    27    51   2
    34    27    46  am
    35    46    30   1
    36    30    35  ar
    37    30    31  ar
    38    31    32  ar
    39    32    33  ar
    40    33    34  ar
    41    34    35  ar
    42    23    24   1
    43    24    25   1
    44    25    44   1
    45    44    28   1
    46    44    26  am
    47    26    47   2
    48    26    29   1
    49    29    37  ar
    50    29    36  ar
    51    36    28   1
    52    36    38  ar
    53    38    39  ar
    54    39    40  ar
    55    40    37  ar
    56    41    52   1
    57     1    53   1
    58     1    54   1
    59     2    55   1
    60     4    56   1
    61     4    57   1
    62     4    58   1
    63     6    59   1
    64     7    60   1
    65     8    61   1
    66     8    62   1
    67     9    63   1
    68     9    64   1
    69    11    65   1
    70    12    66   1
    71    14    67   1
    72    15    68   1
    73    17    69   1
    74    18    70   1
    75    18    71   1
    76    19    72   1
    77    20    73   1
    78    20    74   1
    79    21    75   1
    80    22    76   1
    81    22    77   1
    82    22    78   1
    83    23    79   1
    84    23    80   1
    85    24    81   1
    86    24    82   1
    87    25    83   1
    88    25    84   1
    89    28    85   1
    90    28    86   1
    91    31    87   1
    92    32    88   1
    93    33    89   1
    94    34    90   1
    95    35    91   1
    96    37    92   1
    97    38    93   1
    98    39    94   1
    99    40    95   1
   100    42    96   1
   101    43    97   1
   102    45    98   1
   103    46    99   1
@<TRIPOS>SUBSTRUCTURE
     1  L04      1

