@<TRIPOS>MOLECULE
1hfs_ligand_088
    99   103
SMALL
GAST_HUCK
****
This file was generated by PARSER (from files_GN.cpp)

@<TRIPOS>ATOM
      1 C1         33.3212   36.3632   22.9732 C.3         1 L04      -0.0384
      2 C2         32.4346   37.4093   23.7402 C.3         1 L04       0.0141
      3 C3         32.4151   37.2072   25.2170 C.2         1 L04       0.0380
      4 C4         25.0726   36.5832   21.0888 C.3         1 L04      -0.0625
      5 C5         28.6587   41.7270   15.4759 C.ar        1 L04      -0.0257
      6 C6         28.8619   43.1259   15.6048 C.ar        1 L04      -0.0571
      7 C7         30.6888   38.9260   22.4083 C.3         1 L04       0.0523
      8 C8         31.0261   38.9069   20.8790 C.3         1 L04      -0.0232
      9 C9         29.9810   38.2419   19.9152 C.3         1 L04      -0.0166
     10 C10        29.6029   39.1014   18.7520 C.ar        1 L04      -0.0424
     11 C11        29.8960   38.7305   17.4184 C.ar        1 L04      -0.0596
     12 C12        29.5680   39.5813   16.3434 C.ar        1 L04      -0.0610
     13 C13        28.9459   40.8378   16.5610 C.ar        1 L04      -0.0267
     14 C14        28.6282   41.1865   17.8969 C.ar        1 L04      -0.0610
     15 C15        28.9366   40.3303   18.9697 C.ar        1 L04      -0.0596
     16 C16        29.3880   39.5486   22.6834 C.2         1 L04       0.1816
     17 C17        28.6033   44.0047   14.5350 C.ar        1 L04      -0.0282
     18 C18        30.9746   37.5669   23.1562 C.3         1 L04      -0.0186
     19 C19        26.9857   39.2937   23.2461 C.3         1 L04       0.1369
     20 C20        25.9380   38.2081   22.8637 C.3         1 L04      -0.0096
     21 C21        25.7264   37.9691   21.3286 C.3         1 L04      -0.0425
     22 C22        24.8876   39.0917   20.6600 C.3         1 L04      -0.0625
     23 C23        34.8425   36.7084   22.9658 C.3         1 L04      -0.0495
     24 C24        35.2705   37.6929   21.8138 C.3         1 L04      -0.0323
     25 C25        36.0729   38.9406   22.2803 C.3         1 L04       0.0356
     26 C26        34.2739   40.6053   22.5851 C.2         1 L04       0.2046
     27 C27        26.9957   39.6718   24.6639 C.2         1 L04       0.2292
     28 C28        35.4717   40.0621   24.4645 C.3         1 L04       0.0703
     29 C29        33.6317   41.2177   23.6193 C.ar        1 L04       0.0535
     30 C30        26.3364   39.1151   26.9584 C.ar        1 L04       0.0663
     31 C31        27.1651   39.9622   27.7375 C.ar        1 L04      -0.0413
     32 C32        26.9392   40.1140   29.1189 C.ar        1 L04      -0.0755
     33 C33        25.8840   39.4246   29.7407 C.ar        1 L04      -0.0772
     34 C34        25.0735   38.5562   28.9875 C.ar        1 L04      -0.0755
     35 C35        25.3019   38.4055   27.6074 C.ar        1 L04      -0.0413
     36 C36        34.3234   40.9027   24.7851 C.ar        1 L04      -0.0003
     37 C37        32.4423   41.9708   23.6765 C.ar        1 L04      -0.0484
     38 C38        33.8567   41.3107   26.0463 C.ar        1 L04      -0.0524
     39 C39        32.6467   42.0332   26.1186 C.ar        1 L04      -0.0641
     40 C40        31.9410   42.3593   24.9370 C.ar        1 L04      -0.0630
     41 C41        28.1288   43.5038   13.3110 C.ar        1 L04       0.1322
     42 C42        27.9111   42.1231   13.1620 C.ar        1 L04      -0.0282
     43 C43        28.1766   41.2444   14.2305 C.ar        1 L04      -0.0571
     44 N1         35.2792   39.8709   23.0554 N.am        1 L04      -0.2613
     45 N18        28.2947   38.8167   22.8743 N.am        1 L04      -0.2649
     46 N29        26.4661   38.9013   25.6132 N.am        1 L04      -0.2320
     47 O1         33.8922   40.6494   21.4223 O.2         1 L04      -0.3882
     48 O4         31.7872   38.1024   26.0194 O.co2       1 L04      -0.5687
     49 O5         32.9931   36.1621   25.8562 O.co2       1 L04      -0.5687
     50 O17        29.3164   40.7716   22.7103 O.2         1 L04      -0.3966
     51 O28        27.4670   40.7713   24.9317 O.2         1 L04      -0.3823
     52 F1         27.8922   44.3145   12.3191 F           1 L04      -0.1835
     53 H1         33.1795   35.3745   23.4260 H           1 L04       0.0286
     54 H2         32.9883   36.2711   21.9360 H           1 L04       0.0286
     55 H3         32.9537   38.3636   23.6233 H           1 L04       0.0467
     56 H4         24.9014   36.4196   20.0214 H           1 L04       0.0232
     57 H5         24.1220   36.5188   21.6192 H           1 L04       0.0232
     58 H6         25.7230   35.7852   21.4514 H           1 L04       0.0232
     59 H7         29.2239   43.5209   16.4774 H           1 L04       0.0606
     60 H8         31.3960   39.6402   22.8381 H           1 L04       0.0541
     61 H9         31.9837   38.3980   20.7437 H           1 L04       0.0315
     62 H10        31.2051   39.9434   20.5715 H           1 L04       0.0315
     63 H11        29.0652   38.0021   20.4545 H           1 L04       0.0430
     64 H12        30.3863   37.2833   19.5680 H           1 L04       0.0430
     65 H13        30.3581   37.8383   17.2213 H           1 L04       0.0559
     66 H14        29.8163   39.2809   15.3982 H           1 L04       0.0604
     67 H15        28.1547   42.0661   18.1072 H           1 L04       0.0604
     68 H16        28.6776   40.6158   19.9180 H           1 L04       0.0559
     69 H17        28.7691   45.0060   14.6515 H           1 L04       0.0604
     70 H18        30.2576   37.4674   23.9775 H           1 L04       0.0313
     71 H19        30.7415   36.7412   22.4791 H           1 L04       0.0313
     72 H20        26.7468   40.1848   22.6534 H           1 L04       0.0805
     73 H21        24.9722   38.4665   23.3049 H           1 L04       0.0315
     74 H22        26.2641   37.2693   23.3180 H           1 L04       0.0315
     75 H23        26.7027   37.9482   20.8383 H           1 L04       0.0298
     76 H24        25.4190   40.0449   20.6920 H           1 L04       0.0232
     77 H25        23.9243   39.2099   21.1631 H           1 L04       0.0232
     78 H26        24.7020   38.8498   19.6099 H           1 L04       0.0232
     79 H27        35.4028   35.7713   22.8427 H           1 L04       0.0267
     80 H28        35.1268   37.1292   23.9442 H           1 L04       0.0267
     81 H29        34.3966   38.0339   21.2516 H           1 L04       0.0285
     82 H30        35.8869   37.1346   21.1033 H           1 L04       0.0285
     83 H31        36.4669   39.4596   21.3999 H           1 L04       0.0523
     84 H32        36.9360   38.5948   22.8580 H           1 L04       0.0523
     85 H33        36.4140   40.5842   24.6697 H           1 L04       0.0699
     86 H34        35.4208   39.1088   25.0015 H           1 L04       0.0699
     87 H35        27.9558   40.4536   27.3203 H           1 L04       0.0502
     88 H36        27.5439   40.7272   29.6724 H           1 L04       0.0577
     89 H37        25.7126   39.5455   30.7430 H           1 L04       0.0487
     90 H38        24.3119   38.0473   29.4408 H           1 L04       0.0577
     91 H39        24.6940   37.7781   27.0764 H           1 L04       0.0502
     92 H40        31.9259   42.2009   22.8249 H           1 L04       0.0651
     93 H41        34.3706   41.0732   26.8920 H           1 L04       0.0569
     94 H42        32.2766   42.3141   27.0267 H           1 L04       0.0635
     95 H43        31.0638   42.8794   25.0003 H           1 L04       0.0572
     96 H44        27.5618   41.7528   12.2751 H           1 L04       0.0604
     97 H45        28.0057   40.2445   14.0904 H           1 L04       0.0606
     98 H46        28.3967   37.8568   22.7532 H           1 L04       0.1883
     99 H47        26.0475   38.0850   25.2979 H           1 L04       0.2257
@<TRIPOS>BOND
     1     1    23   1
     2     1     2   1
     3     2    18   1
     4     2     3   1
     5     3    49  ar
     6     3    48  ar
     7    18     7   1
     8     7    16   1
     9     7     8   1
    10     8     9   1
    11     9    10   1
    12    10    15  ar
    13    10    11  ar
    14    11    12  ar
    15    12    13  ar
    16    13    14  ar
    17    13     5   1
    18     5    43  ar
    19     5     6  ar
    20     6    17  ar
    21    17    41  ar
    22    41    42  ar
    23    42    43  ar
    24    14    15  ar
    25    16    50   2
    26    16    45  am
    27    45    19   1
    28    19    27   1
    29    19    20   1
    30    20    21   1
    31    21     4   1
    32    21    22   1
    33    27    51   2
    34    27    46  am
    35    46    30   1
    36    30    35  ar
    37    30    31  ar
    38    31    32  ar
    39    32    33  ar
    40    33    34  ar
    41    34    35  ar
    42    23    24   1
    43    24    25   1
    44    25    44   1
    45    44    28   1
    46    44    26  am
    47    26    47   2
    48    26    29   1
    49    29    37  ar
    50    29    36  ar
    51    36    28   1
    52    36    38  ar
    53    38    39  ar
    54    39    40  ar
    55    40    37  ar
    56    41    52   1
    57     1    53   1
    58     1    54   1
    59     2    55   1
    60     4    56   1
    61     4    57   1
    62     4    58   1
    63     6    59   1
    64     7    60   1
    65     8    61   1
    66     8    62   1
    67     9    63   1
    68     9    64   1
    69    11    65   1
    70    12    66   1
    71    14    67   1
    72    15    68   1
    73    17    69   1
    74    18    70   1
    75    18    71   1
    76    19    72   1
    77    20    73   1
    78    20    74   1
    79    21    75   1
    80    22    76   1
    81    22    77   1
    82    22    78   1
    83    23    79   1
    84    23    80   1
    85    24    81   1
    86    24    82   1
    87    25    83   1
    88    25    84   1
    89    28    85   1
    90    28    86   1
    91    31    87   1
    92    32    88   1
    93    33    89   1
    94    34    90   1
    95    35    91   1
    96    37    92   1
    97    38    93   1
    98    39    94   1
    99    40    95   1
   100    42    96   1
   101    43    97   1
   102    45    98   1
   103    46    99   1
@<TRIPOS>SUBSTRUCTURE
     1  L04      1

