@<TRIPOS>MOLECULE
1hfs_ligand_074
    99   103
SMALL
GAST_HUCK
****
This file was generated by PARSER (from files_GN.cpp)

@<TRIPOS>ATOM
      1 C1         33.9913   39.0726   22.9734 C.3         1 L04      -0.0384
      2 C2         33.0089   38.4058   23.9978 C.3         1 L04       0.0141
      3 C3         33.7068   37.6602   25.0759 C.2         1 L04       0.0380
      4 C4         23.9903   38.8104   22.8923 C.3         1 L04      -0.0625
      5 C5         33.7763   42.1631   16.6683 C.ar        1 L04      -0.0257
      6 C6         33.5869   43.5274   16.3523 C.ar        1 L04      -0.0571
      7 C7         30.7916   38.3399   22.5174 C.3         1 L04       0.0523
      8 C8         31.0356   38.1508   20.9827 C.3         1 L04      -0.0232
      9 C9         30.2547   39.1628   20.0717 C.3         1 L04      -0.0166
     10 C10        31.1329   39.9606   19.1694 C.ar        1 L04      -0.0424
     11 C11        31.0707   39.8174   17.7651 C.ar        1 L04      -0.0596
     12 C12        31.9330   40.5569   16.9333 C.ar        1 L04      -0.0610
     13 C13        32.8589   41.4652   17.4909 C.ar        1 L04      -0.0267
     14 C14        32.9028   41.6321   18.8912 C.ar        1 L04      -0.0610
     15 C15        32.0434   40.8891   19.7208 C.ar        1 L04      -0.0596
     16 C16        29.4043   37.9985   22.8443 C.2         1 L04       0.1816
     17 C17        34.5437   44.2218   15.5838 C.ar        1 L04      -0.0282
     18 C18        31.8180   37.5572   23.4196 C.3         1 L04      -0.0186
     19 C19        27.0439   38.7763   23.0194 C.3         1 L04       0.1369
     20 C20        26.2627   37.8311   22.0389 C.3         1 L04      -0.0096
     21 C21        24.7775   38.1954   21.7012 C.3         1 L04      -0.0425
     22 C22        24.6602   39.0812   20.4286 C.3         1 L04      -0.0625
     23 C23        34.8018   38.1413   22.0142 C.3         1 L04      -0.0495
     24 C24        36.3078   37.9445   22.3822 C.3         1 L04      -0.0323
     25 C25        36.8276   36.5131   22.0602 C.3         1 L04       0.0356
     26 C26        37.1888   35.4496   24.2368 C.2         1 L04       0.2046
     27 C27        26.8910   38.4389   24.4330 C.2         1 L04       0.2292
     28 C28        35.3691   34.6818   23.0678 C.3         1 L04       0.0703
     29 C29        36.5575   34.5787   25.0688 C.ar        1 L04       0.0535
     30 C30        26.3438   39.3757   26.6179 C.ar        1 L04       0.0663
     31 C31        25.9671   38.2399   27.3705 C.ar        1 L04      -0.0413
     32 C32        25.8429   38.3230   28.7703 C.ar        1 L04      -0.0755
     33 C33        26.1048   39.5391   29.4309 C.ar        1 L04      -0.0772
     34 C34        26.4466   40.6835   28.6893 C.ar        1 L04      -0.0755
     35 C35        26.5603   40.6014   27.2901 C.ar        1 L04      -0.0413
     36 C36        35.4507   34.0736   24.3914 C.ar        1 L04      -0.0003
     37 C37        36.8143   34.1872   26.3979 C.ar        1 L04      -0.0484
     38 C38        34.5636   33.1687   25.0028 C.ar        1 L04      -0.0524
     39 C39        34.8057   32.7806   26.3357 C.ar        1 L04      -0.0641
     40 C40        35.9268   33.2912   27.0323 C.ar        1 L04      -0.0630
     41 C41        35.7043   43.5641   15.1400 C.ar        1 L04       0.1322
     42 C42        35.9032   42.2065   15.4518 C.ar        1 L04      -0.0282
     43 C43        34.9438   41.5074   16.2063 C.ar        1 L04      -0.0571
     44 N1         36.5055   35.5659   23.1030 N.am        1 L04      -0.2613
     45 N18        28.4410   38.9047   22.7162 N.am        1 L04      -0.2649
     46 N29        26.4903   39.3937   25.2658 N.am        1 L04      -0.2320
     47 O1         38.2043   36.0679   24.5340 O.2         1 L04      -0.3882
     48 O4         34.7736   36.8668   24.8131 O.co2       1 L04      -0.5687
     49 O5         33.0318   37.3929   26.2155 O.co2       1 L04      -0.5687
     50 O17        29.1447   36.8684   23.2377 O.2         1 L04      -0.3966
     51 O28        27.3107   37.3608   24.8380 O.2         1 L04      -0.3823
     52 F1         36.5992   44.2123   14.4464 F           1 L04      -0.1835
     53 H1         33.4044   39.7611   22.3563 H           1 L04       0.0286
     54 H2         34.6849   39.7058   23.5374 H           1 L04       0.0286
     55 H3         32.5310   39.2501   24.5120 H           1 L04       0.0467
     56 H4         22.9390   38.9466   22.6293 H           1 L04       0.0232
     57 H5         24.3895   39.7888   23.1660 H           1 L04       0.0232
     58 H6         24.0406   38.1528   23.7645 H           1 L04       0.0232
     59 H7         32.7553   44.0283   16.6812 H           1 L04       0.0606
     60 H8         30.9327   39.4079   22.7099 H           1 L04       0.0541
     61 H9         30.7562   37.1314   20.6956 H           1 L04       0.0315
     62 H10        32.1075   38.2263   20.7859 H           1 L04       0.0315
     63 H11        29.6839   39.8737   20.6767 H           1 L04       0.0430
     64 H12        29.5140   38.6013   19.4903 H           1 L04       0.0430
     65 H13        30.4122   39.1636   17.3402 H           1 L04       0.0559
     66 H14        31.8763   40.4264   15.9193 H           1 L04       0.0604
     67 H15        33.5719   42.2758   19.3193 H           1 L04       0.0604
     68 H16        32.0971   41.0214   20.7339 H           1 L04       0.0559
     69 H17        34.3942   45.2088   15.3614 H           1 L04       0.0604
     70 H18        31.2733   37.1538   24.2858 H           1 L04       0.0313
     71 H19        32.1960   36.6855   22.8834 H           1 L04       0.0313
     72 H20        26.6572   39.7843   22.8511 H           1 L04       0.0805
     73 H21        26.2791   36.8087   22.4268 H           1 L04       0.0315
     74 H22        26.8145   37.7919   21.0947 H           1 L04       0.0315
     75 H23        24.2791   37.2500   21.4590 H           1 L04       0.0298
     76 H24        25.0374   38.5422   19.5572 H           1 L04       0.0232
     77 H25        25.2290   40.0063   20.5345 H           1 L04       0.0232
     78 H26        23.6175   39.3386   20.2309 H           1 L04       0.0232
     79 H27        34.7794   38.5789   21.0041 H           1 L04       0.0267
     80 H28        34.3027   37.1738   21.9447 H           1 L04       0.0267
     81 H29        36.4949   38.1629   23.4364 H           1 L04       0.0285
     82 H30        36.8987   38.6639   21.8070 H           1 L04       0.0285
     83 H31        37.9133   36.5445   21.9226 H           1 L04       0.0523
     84 H32        36.4131   36.1876   21.1037 H           1 L04       0.0523
     85 H33        35.4670   33.9299   22.2844 H           1 L04       0.0699
     86 H34        34.4264   35.2233   22.9708 H           1 L04       0.0699
     87 H35        25.7490   37.3584   26.9065 H           1 L04       0.0502
     88 H36        25.5655   37.4987   29.3086 H           1 L04       0.0577
     89 H37        26.0292   39.5961   30.4509 H           1 L04       0.0487
     90 H38        26.6162   41.5716   29.1653 H           1 L04       0.0577
     91 H39        26.8053   41.4433   26.7651 H           1 L04       0.0502
     92 H40        37.6264   34.5538   26.9008 H           1 L04       0.0651
     93 H41        33.7568   32.8054   24.4855 H           1 L04       0.0569
     94 H42        34.1703   32.1262   26.7955 H           1 L04       0.0635
     95 H43        36.0915   33.0085   28.0017 H           1 L04       0.0572
     96 H44        36.7499   41.7244   15.1379 H           1 L04       0.0604
     97 H45        35.1133   40.5256   16.4428 H           1 L04       0.0606
     98 H46        28.7228   39.7725   22.3770 H           1 L04       0.1883
     99 H47        26.3635   40.2651   24.8622 H           1 L04       0.2257
@<TRIPOS>BOND
     1     1    23   1
     2     1     2   1
     3     2    18   1
     4     2     3   1
     5     3    49  ar
     6     3    48  ar
     7    18     7   1
     8     7    16   1
     9     7     8   1
    10     8     9   1
    11     9    10   1
    12    10    15  ar
    13    10    11  ar
    14    11    12  ar
    15    12    13  ar
    16    13    14  ar
    17    13     5   1
    18     5    43  ar
    19     5     6  ar
    20     6    17  ar
    21    17    41  ar
    22    41    42  ar
    23    42    43  ar
    24    14    15  ar
    25    16    50   2
    26    16    45  am
    27    45    19   1
    28    19    27   1
    29    19    20   1
    30    20    21   1
    31    21     4   1
    32    21    22   1
    33    27    51   2
    34    27    46  am
    35    46    30   1
    36    30    35  ar
    37    30    31  ar
    38    31    32  ar
    39    32    33  ar
    40    33    34  ar
    41    34    35  ar
    42    23    24   1
    43    24    25   1
    44    25    44   1
    45    44    28   1
    46    44    26  am
    47    26    47   2
    48    26    29   1
    49    29    37  ar
    50    29    36  ar
    51    36    28   1
    52    36    38  ar
    53    38    39  ar
    54    39    40  ar
    55    40    37  ar
    56    41    52   1
    57     1    53   1
    58     1    54   1
    59     2    55   1
    60     4    56   1
    61     4    57   1
    62     4    58   1
    63     6    59   1
    64     7    60   1
    65     8    61   1
    66     8    62   1
    67     9    63   1
    68     9    64   1
    69    11    65   1
    70    12    66   1
    71    14    67   1
    72    15    68   1
    73    17    69   1
    74    18    70   1
    75    18    71   1
    76    19    72   1
    77    20    73   1
    78    20    74   1
    79    21    75   1
    80    22    76   1
    81    22    77   1
    82    22    78   1
    83    23    79   1
    84    23    80   1
    85    24    81   1
    86    24    82   1
    87    25    83   1
    88    25    84   1
    89    28    85   1
    90    28    86   1
    91    31    87   1
    92    32    88   1
    93    33    89   1
    94    34    90   1
    95    35    91   1
    96    37    92   1
    97    38    93   1
    98    39    94   1
    99    40    95   1
   100    42    96   1
   101    43    97   1
   102    45    98   1
   103    46    99   1
@<TRIPOS>SUBSTRUCTURE
     1  L04      1

