@<TRIPOS>MOLECULE
1hfs_ligand_053
    99   103
SMALL
GAST_HUCK
****
This file was generated by PARSER (from files_GN.cpp)

@<TRIPOS>ATOM
      1 C1         31.1201   38.8307   25.1276 C.3         1 L04      -0.0384
      2 C2         31.4672   40.2474   24.5476 C.3         1 L04       0.0141
      3 C3         30.2804   41.1541   24.4660 C.2         1 L04       0.0380
      4 C4         32.1114   40.0106   15.9898 C.3         1 L04      -0.0625
      5 C5         39.0941   37.4335   22.9702 C.ar        1 L04      -0.0257
      6 C6         40.2579   37.7091   23.7475 C.ar        1 L04      -0.0571
      7 C7         32.4906   41.3413   22.2979 C.3         1 L04       0.0523
      8 C8         33.8445   41.3685   21.5006 C.3         1 L04      -0.0232
      9 C9         35.1392   41.5868   22.3632 C.3         1 L04      -0.0166
     10 C10        36.0384   40.4174   22.5469 C.ar        1 L04      -0.0424
     11 C11        36.5976   40.1048   23.8183 C.ar        1 L04      -0.0596
     12 C12        37.5809   39.1282   23.9545 C.ar        1 L04      -0.0610
     13 C13        38.0547   38.3863   22.8350 C.ar        1 L04      -0.0267
     14 C14        37.4668   38.6760   21.5730 C.ar        1 L04      -0.0610
     15 C15        36.4977   39.6712   21.4317 C.ar        1 L04      -0.0596
     16 C16        31.3497   41.4172   21.3794 C.2         1 L04       0.1816
     17 C17        41.2714   36.7623   23.8995 C.ar        1 L04      -0.0282
     18 C18        32.3563   40.1050   23.2559 C.3         1 L04      -0.0186
     19 C19        30.1586   40.4307   19.4446 C.3         1 L04       0.1369
     20 C20        30.6506   39.8827   18.0714 C.3         1 L04      -0.0096
     21 C21        31.7092   40.7412   17.3036 C.3         1 L04      -0.0425
     22 C22        31.2178   42.1810   16.9777 C.3         1 L04      -0.0625
     23 C23        30.0362   37.9921   24.3679 C.3         1 L04      -0.0495
     24 C24        30.5253   36.8801   23.3937 C.3         1 L04      -0.0323
     25 C25        31.0669   35.5842   24.0636 C.3         1 L04       0.0356
     26 C26        33.1534   35.8615   25.3369 C.2         1 L04       0.2046
     27 C27        29.1833   39.5417   20.0644 C.2         1 L04       0.2292
     28 C28        33.3872   35.0186   23.2263 C.3         1 L04       0.0703
     29 C29        34.4787   35.6113   25.1989 C.ar        1 L04       0.0535
     30 C30        26.9722   39.3056   21.0228 C.ar        1 L04       0.0663
     31 C31        26.3186   38.2399   20.3591 C.ar        1 L04      -0.0413
     32 C32        25.2419   37.5739   20.9666 C.ar        1 L04      -0.0755
     33 C33        24.7996   37.9698   22.2423 C.ar        1 L04      -0.0772
     34 C34        25.4180   39.0498   22.8960 C.ar        1 L04      -0.0755
     35 C35        26.4914   39.7238   22.2797 C.ar        1 L04      -0.0413
     36 C36        34.6726   35.0795   23.9280 C.ar        1 L04      -0.0003
     37 C37        35.5575   35.7843   26.0877 C.ar        1 L04      -0.0484
     38 C38        35.9486   34.6691   23.5095 C.ar        1 L04      -0.0524
     39 C39        37.0355   34.8215   24.3927 C.ar        1 L04      -0.0641
     40 C40        36.8430   35.3906   25.6725 C.ar        1 L04      -0.0630
     41 C41        41.1623   35.4973   23.2824 C.ar        1 L04       0.1322
     42 C42        40.0279   35.2108   22.4947 C.ar        1 L04      -0.0282
     43 C43        39.0139   36.1596   22.3411 C.ar        1 L04      -0.0571
     44 N1         32.4991   35.5433   24.2291 N.am        1 L04      -0.2613
     45 N18        31.2595   40.5814   20.3546 N.am        1 L04      -0.2649
     46 N29        28.0114   40.0014   20.4663 N.am        1 L04      -0.2320
     47 O1         32.6535   36.3202   26.3513 O.2         1 L04      -0.3882
     48 O4         29.0626   40.8150   24.9534 O.co2       1 L04      -0.5687
     49 O5         30.4610   42.4822   24.2855 O.co2       1 L04      -0.5687
     50 O17        30.4547   42.2299   21.6063 O.2         1 L04      -0.3966
     51 O28        29.5350   38.3891   20.3436 O.2         1 L04      -0.3823
     52 F1         42.1020   34.6090   23.4341 F           1 L04      -0.1835
     53 H1         32.0425   38.2564   25.1865 H           1 L04       0.0286
     54 H2         30.7888   38.9592   26.1632 H           1 L04       0.0286
     55 H3         32.1135   40.7178   25.3010 H           1 L04       0.0467
     56 H4         32.8717   40.5783   15.4484 H           1 L04       0.0232
     57 H5         31.2408   39.8868   15.3407 H           1 L04       0.0232
     58 H6         32.5233   39.0239   16.2123 H           1 L04       0.0232
     59 H7         40.3640   38.6211   24.1984 H           1 L04       0.0606
     60 H8         32.4983   42.2357   22.9242 H           1 L04       0.0541
     61 H9         33.8080   42.1990   20.7821 H           1 L04       0.0315
     62 H10        33.9278   40.4506   20.9102 H           1 L04       0.0315
     63 H11        34.8607   42.0055   23.3343 H           1 L04       0.0430
     64 H12        35.7448   42.3592   21.8759 H           1 L04       0.0430
     65 H13        36.3095   40.6385   24.6452 H           1 L04       0.0559
     66 H14        37.9833   38.9545   24.8821 H           1 L04       0.0604
     67 H15        37.7957   38.1848   20.7355 H           1 L04       0.0604
     68 H16        36.1414   39.8875   20.4951 H           1 L04       0.0559
     69 H17        42.0958   36.9805   24.4672 H           1 L04       0.0604
     70 H18        32.0025   39.2485   22.6744 H           1 L04       0.0313
     71 H19        33.3574   39.8304   23.6104 H           1 L04       0.0313
     72 H20        29.6694   41.3910   19.2551 H           1 L04       0.0805
     73 H21        29.7817   39.7483   17.4160 H           1 L04       0.0315
     74 H22        31.0804   38.8875   18.2464 H           1 L04       0.0315
     75 H23        32.6043   40.8242   17.9282 H           1 L04       0.0298
     76 H24        31.1371   42.7781   17.8863 H           1 L04       0.0232
     77 H25        30.2449   42.1507   16.4819 H           1 L04       0.0232
     78 H26        31.9286   42.6899   16.3197 H           1 L04       0.0232
     79 H27        29.4126   38.6640   23.7746 H           1 L04       0.0267
     80 H28        29.3634   37.5372   25.1029 H           1 L04       0.0267
     81 H29        31.2699   37.2794   22.6982 H           1 L04       0.0285
     82 H30        29.6536   36.5874   22.7969 H           1 L04       0.0285
     83 H31        30.7861   34.7327   23.4355 H           1 L04       0.0523
     84 H32        30.5627   35.4258   25.0249 H           1 L04       0.0523
     85 H33        33.3988   35.6453   22.3298 H           1 L04       0.0699
     86 H34        33.1408   33.9836   22.9701 H           1 L04       0.0699
     87 H35        26.6100   37.9553   19.4234 H           1 L04       0.0502
     88 H36        24.7756   36.8068   20.4817 H           1 L04       0.0577
     89 H37        24.0213   37.4813   22.6870 H           1 L04       0.0487
     90 H38        25.0889   39.3489   23.8172 H           1 L04       0.0577
     91 H39        26.9357   40.5081   22.7657 H           1 L04       0.0502
     92 H40        35.4089   36.1845   27.0172 H           1 L04       0.0651
     93 H41        36.0808   34.2568   22.5834 H           1 L04       0.0569
     94 H42        37.9642   34.5178   24.1097 H           1 L04       0.0635
     95 H43        37.6374   35.5098   26.3016 H           1 L04       0.0572
     96 H44        39.9444   34.2951   22.0430 H           1 L04       0.0604
     97 H45        38.1900   35.9160   21.7851 H           1 L04       0.0606
     98 H46        32.0008   39.9594   20.2395 H           1 L04       0.1883
     99 H47        27.8798   40.9633   20.3940 H           1 L04       0.2257
@<TRIPOS>BOND
     1     1    23   1
     2     1     2   1
     3     2    18   1
     4     2     3   1
     5     3    49  ar
     6     3    48  ar
     7    18     7   1
     8     7    16   1
     9     7     8   1
    10     8     9   1
    11     9    10   1
    12    10    15  ar
    13    10    11  ar
    14    11    12  ar
    15    12    13  ar
    16    13    14  ar
    17    13     5   1
    18     5    43  ar
    19     5     6  ar
    20     6    17  ar
    21    17    41  ar
    22    41    42  ar
    23    42    43  ar
    24    14    15  ar
    25    16    50   2
    26    16    45  am
    27    45    19   1
    28    19    27   1
    29    19    20   1
    30    20    21   1
    31    21     4   1
    32    21    22   1
    33    27    51   2
    34    27    46  am
    35    46    30   1
    36    30    35  ar
    37    30    31  ar
    38    31    32  ar
    39    32    33  ar
    40    33    34  ar
    41    34    35  ar
    42    23    24   1
    43    24    25   1
    44    25    44   1
    45    44    28   1
    46    44    26  am
    47    26    47   2
    48    26    29   1
    49    29    37  ar
    50    29    36  ar
    51    36    28   1
    52    36    38  ar
    53    38    39  ar
    54    39    40  ar
    55    40    37  ar
    56    41    52   1
    57     1    53   1
    58     1    54   1
    59     2    55   1
    60     4    56   1
    61     4    57   1
    62     4    58   1
    63     6    59   1
    64     7    60   1
    65     8    61   1
    66     8    62   1
    67     9    63   1
    68     9    64   1
    69    11    65   1
    70    12    66   1
    71    14    67   1
    72    15    68   1
    73    17    69   1
    74    18    70   1
    75    18    71   1
    76    19    72   1
    77    20    73   1
    78    20    74   1
    79    21    75   1
    80    22    76   1
    81    22    77   1
    82    22    78   1
    83    23    79   1
    84    23    80   1
    85    24    81   1
    86    24    82   1
    87    25    83   1
    88    25    84   1
    89    28    85   1
    90    28    86   1
    91    31    87   1
    92    32    88   1
    93    33    89   1
    94    34    90   1
    95    35    91   1
    96    37    92   1
    97    38    93   1
    98    39    94   1
    99    40    95   1
   100    42    96   1
   101    43    97   1
   102    45    98   1
   103    46    99   1
@<TRIPOS>SUBSTRUCTURE
     1  L04      1

