@<TRIPOS>MOLECULE
1hfs_ligand_084
    99   103
SMALL
GAST_HUCK
****
This file was generated by PARSER (from files_GN.cpp)

@<TRIPOS>ATOM
      1 C1         30.2954   39.2119   22.1409 C.3         1 L04      -0.0384
      2 C2         29.4547   38.9411   23.4302 C.3         1 L04       0.0141
      3 C3         28.4946   37.8315   23.2345 C.2         1 L04       0.0380
      4 C4         23.5736   40.3607   29.7432 C.3         1 L04      -0.0625
      5 C5         35.5240   41.2649   23.9428 C.ar        1 L04      -0.0257
      6 C6         36.2275   40.0841   24.2752 C.ar        1 L04      -0.0571
      7 C7         29.0234   40.5272   25.5196 C.3         1 L04       0.0523
      8 C8         29.1504   42.0630   25.8680 C.3         1 L04      -0.0232
      9 C9         30.5011   42.4854   26.5255 C.3         1 L04      -0.0166
     10 C10        31.7810   42.1691   25.8186 C.ar        1 L04      -0.0424
     11 C11        31.8594   41.9033   24.4321 C.ar        1 L04      -0.0596
     12 C12        33.0849   41.5963   23.8127 C.ar        1 L04      -0.0610
     13 C13        34.2813   41.5667   24.5616 C.ar        1 L04      -0.0267
     14 C14        34.2213   41.8825   25.9382 C.ar        1 L04      -0.0610
     15 C15        32.9925   42.1902   26.5498 C.ar        1 L04      -0.0596
     16 C16        28.0528   39.8216   26.3644 C.2         1 L04       0.1816
     17 C17        37.4616   39.7870   23.6674 C.ar        1 L04      -0.0282
     18 C18        28.7469   40.2315   23.9949 C.3         1 L04      -0.0186
     19 C19        25.7163   39.7992   27.2600 C.3         1 L04       0.1369
     20 C20        25.9845   39.9333   28.8012 C.3         1 L04      -0.0096
     21 C21        24.8786   39.5236   29.8319 C.3         1 L04      -0.0425
     22 C22        24.5663   38.0031   29.8360 C.3         1 L04      -0.0625
     23 C23        31.1285   38.0407   21.5331 C.3         1 L04      -0.0495
     24 C24        32.3289   37.4732   22.3547 C.3         1 L04      -0.0323
     25 C25        31.9416   36.5832   23.5727 C.3         1 L04       0.0356
     26 C26        33.4451   35.7501   25.3453 C.2         1 L04       0.2046
     27 C27        24.5558   40.5505   26.7916 C.2         1 L04       0.2292
     28 C28        33.6214   34.6955   23.3235 C.3         1 L04       0.0703
     29 C29        34.3420   34.7408   25.5362 C.ar        1 L04       0.0535
     30 C30        22.6765   40.5458   25.1953 C.ar        1 L04       0.0663
     31 C31        22.0073   39.6585   24.3184 C.ar        1 L04      -0.0413
     32 C32        20.9269   40.0916   23.5250 C.ar        1 L04      -0.0755
     33 C33        20.4988   41.4280   23.5889 C.ar        1 L04      -0.0772
     34 C34        21.1481   42.3272   24.4491 C.ar        1 L04      -0.0755
     35 C35        22.2234   41.8906   25.2460 C.ar        1 L04      -0.0413
     36 C36        34.4782   34.0630   24.3278 C.ar        1 L04      -0.0003
     37 C37        35.0477   34.3163   26.6803 C.ar        1 L04      -0.0484
     38 C38        35.3216   32.9389   24.2165 C.ar        1 L04      -0.0524
     39 C39        36.0386   32.5125   25.3548 C.ar        1 L04      -0.0641
     40 C40        35.9012   33.1977   26.5815 C.ar        1 L04      -0.0630
     41 C41        38.0167   40.6748   22.7280 C.ar        1 L04       0.1322
     42 C42        37.3303   41.8562   22.3914 C.ar        1 L04      -0.0282
     43 C43        36.0887   42.1461   22.9903 C.ar        1 L04      -0.0571
     44 N1         33.0071   35.7498   24.0886 N.am        1 L04      -0.2613
     45 N18        26.8191   40.2968   26.4728 N.am        1 L04      -0.2649
     46 N29        23.7178   40.0066   25.9090 N.am        1 L04      -0.2320
     47 O1         33.0572   36.4884   26.2416 O.2         1 L04      -0.3882
     48 O4         27.4143   37.9779   22.4353 O.co2       1 L04      -0.5687
     49 O5         28.6897   36.6422   23.8474 O.co2       1 L04      -0.5687
     50 O17        28.3848   38.7902   26.9370 O.2         1 L04      -0.3966
     51 O28        24.4807   41.7301   27.1138 O.2         1 L04      -0.3823
     52 F1         39.1667   40.4092   22.1740 F           1 L04      -0.1835
     53 H1         29.6069   39.5649   21.3670 H           1 L04       0.0286
     54 H2         30.9853   40.0331   22.3451 H           1 L04       0.0286
     55 H3         30.1703   38.6097   24.1747 H           1 L04       0.0467
     56 H4         22.9571   40.1932   30.6299 H           1 L04       0.0232
     57 H5         22.9892   40.0847   28.8647 H           1 L04       0.0232
     58 H6         23.8044   41.4259   29.6923 H           1 L04       0.0232
     59 H7         35.8391   39.4230   24.9564 H           1 L04       0.0606
     60 H8         30.0035   40.0998   25.7494 H           1 L04       0.0541
     61 H9         28.3626   42.3679   26.5632 H           1 L04       0.0315
     62 H10        29.0011   42.6852   24.9820 H           1 L04       0.0315
     63 H11        30.5214   42.0134   27.5148 H           1 L04       0.0430
     64 H12        30.4791   43.5670   26.6898 H           1 L04       0.0430
     65 H13        31.0278   41.9440   23.8473 H           1 L04       0.0559
     66 H14        33.0970   41.3976   22.8092 H           1 L04       0.0604
     67 H15        35.0737   41.9165   26.5013 H           1 L04       0.0604
     68 H16        32.9882   42.4439   27.5397 H           1 L04       0.0559
     69 H17        37.9551   38.9236   23.9114 H           1 L04       0.0604
     70 H18        27.6682   40.1964   23.8106 H           1 L04       0.0313
     71 H19        29.0766   41.0795   23.3968 H           1 L04       0.0313
     72 H20        25.5965   38.7376   27.0189 H           1 L04       0.0805
     73 H21        26.2762   40.9655   29.0135 H           1 L04       0.0315
     74 H22        26.8583   39.3222   29.0351 H           1 L04       0.0315
     75 H23        25.3010   39.7470   30.8187 H           1 L04       0.0298
     76 H24        25.4881   37.4242   29.9211 H           1 L04       0.0232
     77 H25        24.0482   37.7094   28.9213 H           1 L04       0.0232
     78 H26        23.9290   37.7507   30.6878 H           1 L04       0.0232
     79 H27        31.5427   38.4245   20.5945 H           1 L04       0.0267
     80 H28        30.4558   37.2257   21.2595 H           1 L04       0.0267
     81 H29        32.9713   38.2917   22.6914 H           1 L04       0.0285
     82 H30        32.9160   36.8582   21.6690 H           1 L04       0.0285
     83 H31        31.1011   35.9380   23.3042 H           1 L04       0.0523
     84 H32        31.5778   37.2331   24.3647 H           1 L04       0.0523
     85 H33        34.2217   35.0940   22.5033 H           1 L04       0.0699
     86 H34        32.8809   33.9834   22.9477 H           1 L04       0.0699
     87 H35        22.3032   38.6814   24.2458 H           1 L04       0.0502
     88 H36        20.4499   39.4341   22.9043 H           1 L04       0.0577
     89 H37        19.7117   41.7449   23.0154 H           1 L04       0.0487
     90 H38        20.8333   43.2995   24.5008 H           1 L04       0.0577
     91 H39        22.6563   42.5761   25.8599 H           1 L04       0.0502
     92 H40        34.9395   34.8031   27.5708 H           1 L04       0.0651
     93 H41        35.4047   32.4338   23.3332 H           1 L04       0.0569
     94 H42        36.6564   31.7002   25.2917 H           1 L04       0.0635
     95 H43        36.4177   32.8735   27.4033 H           1 L04       0.0572
     96 H44        37.7295   42.5099   21.7144 H           1 L04       0.0604
     97 H45        35.6114   43.0189   22.7459 H           1 L04       0.0606
     98 H46        26.6394   41.0894   25.9411 H           1 L04       0.1883
     99 H47        23.9062   39.0774   25.6988 H           1 L04       0.2257
@<TRIPOS>BOND
     1     1    23   1
     2     1     2   1
     3     2    18   1
     4     2     3   1
     5     3    49  ar
     6     3    48  ar
     7    18     7   1
     8     7    16   1
     9     7     8   1
    10     8     9   1
    11     9    10   1
    12    10    15  ar
    13    10    11  ar
    14    11    12  ar
    15    12    13  ar
    16    13    14  ar
    17    13     5   1
    18     5    43  ar
    19     5     6  ar
    20     6    17  ar
    21    17    41  ar
    22    41    42  ar
    23    42    43  ar
    24    14    15  ar
    25    16    50   2
    26    16    45  am
    27    45    19   1
    28    19    27   1
    29    19    20   1
    30    20    21   1
    31    21     4   1
    32    21    22   1
    33    27    51   2
    34    27    46  am
    35    46    30   1
    36    30    35  ar
    37    30    31  ar
    38    31    32  ar
    39    32    33  ar
    40    33    34  ar
    41    34    35  ar
    42    23    24   1
    43    24    25   1
    44    25    44   1
    45    44    28   1
    46    44    26  am
    47    26    47   2
    48    26    29   1
    49    29    37  ar
    50    29    36  ar
    51    36    28   1
    52    36    38  ar
    53    38    39  ar
    54    39    40  ar
    55    40    37  ar
    56    41    52   1
    57     1    53   1
    58     1    54   1
    59     2    55   1
    60     4    56   1
    61     4    57   1
    62     4    58   1
    63     6    59   1
    64     7    60   1
    65     8    61   1
    66     8    62   1
    67     9    63   1
    68     9    64   1
    69    11    65   1
    70    12    66   1
    71    14    67   1
    72    15    68   1
    73    17    69   1
    74    18    70   1
    75    18    71   1
    76    19    72   1
    77    20    73   1
    78    20    74   1
    79    21    75   1
    80    22    76   1
    81    22    77   1
    82    22    78   1
    83    23    79   1
    84    23    80   1
    85    24    81   1
    86    24    82   1
    87    25    83   1
    88    25    84   1
    89    28    85   1
    90    28    86   1
    91    31    87   1
    92    32    88   1
    93    33    89   1
    94    34    90   1
    95    35    91   1
    96    37    92   1
    97    38    93   1
    98    39    94   1
    99    40    95   1
   100    42    96   1
   101    43    97   1
   102    45    98   1
   103    46    99   1
@<TRIPOS>SUBSTRUCTURE
     1  L04      1

