@<TRIPOS>MOLECULE
1hfs_ligand_000
    99   103
SMALL
GAST_HUCK
****
This file was generated by PARSER (from files_GN.cpp)

@<TRIPOS>ATOM
      1 C1         32.3000   36.9912   23.1266 C.3         1 L04      -0.0384
      2 C2         32.6251   35.8560   24.1602 C.3         1 L04       0.0141
      3 C3         32.3612   36.2410   25.5593 C.2         1 L04       0.0380
      4 C4         39.5531   39.5358   20.8722 C.3         1 L04      -0.0625
      5 C5         38.8999   32.3033   30.8875 C.ar        1 L04      -0.0257
      6 C6         40.0020   31.4914   30.5367 C.ar        1 L04      -0.0571
      7 C7         35.3517   35.6749   24.4595 C.3         1 L04       0.0523
      8 C8         36.1232   34.7402   25.4668 C.3         1 L04      -0.0232
      9 C9         35.5044   34.6436   26.8937 C.3         1 L04      -0.0166
     10 C10        36.4099   34.0088   27.8882 C.ar        1 L04      -0.0424
     11 C11        36.2744   32.6463   28.2476 C.ar        1 L04      -0.0596
     12 C12        37.1040   32.0734   29.2288 C.ar        1 L04      -0.0610
     13 C13        38.0755   32.8598   29.8867 C.ar        1 L04      -0.0267
     14 C14        38.2127   34.2198   29.5362 C.ar        1 L04      -0.0610
     15 C15        37.3987   34.7822   28.5404 C.ar        1 L04      -0.0596
     16 C16        36.2832   36.0554   23.3859 C.2         1 L04       0.1816
     17 C17        40.8467   30.9688   31.5344 C.ar        1 L04      -0.0282
     18 C18        33.9713   35.0607   23.9741 C.3         1 L04      -0.0186
     19 C19        38.4045   37.1497   22.7511 C.3         1 L04       0.1369
     20 C20        39.1690   38.4338   23.2008 C.3         1 L04      -0.0096
     21 C21        40.2146   38.9955   22.1729 C.3         1 L04      -0.0425
     22 C22        41.1081   40.0951   22.8149 C.3         1 L04      -0.0625
     23 C23        32.6295   38.4718   23.4518 C.3         1 L04      -0.0495
     24 C24        31.7638   39.1654   24.5521 C.3         1 L04      -0.0323
     25 C25        32.1017   40.6634   24.7991 C.3         1 L04       0.0356
     26 C26        33.8663   41.4542   23.2825 C.2         1 L04       0.2046
     27 C27        39.3068   36.0022   22.6375 C.2         1 L04       0.2292
     28 C28        34.5581   40.8693   25.3902 C.3         1 L04       0.0703
     29 C29        35.2096   41.6092   23.2821 C.ar        1 L04       0.0535
     30 C30        40.3988   34.4679   21.0613 C.ar        1 L04       0.0663
     31 C31        40.7064   34.4062   19.6809 C.ar        1 L04      -0.0413
     32 C32        41.5651   33.4165   19.1693 C.ar        1 L04      -0.0755
     33 C33        42.1272   32.4592   20.0322 C.ar        1 L04      -0.0772
     34 C34        41.8205   32.4907   21.4035 C.ar        1 L04      -0.0755
     35 C35        40.9627   33.4835   21.9137 C.ar        1 L04      -0.0413
     36 C36        35.6860   41.2851   24.5489 C.ar        1 L04      -0.0003
     37 C37        36.0930   42.0294   22.2638 C.ar        1 L04      -0.0484
     38 C38        37.0492   41.4097   24.8596 C.ar        1 L04      -0.0524
     39 C39        37.9363   41.8815   23.8606 C.ar        1 L04      -0.0641
     40 C40        37.4575   42.1823   22.5693 C.ar        1 L04      -0.0630
     41 C41        40.5910   31.2448   32.8919 C.ar        1 L04       0.1322
     42 C42        39.4948   32.0528   33.2492 C.ar        1 L04      -0.0282
     43 C43        38.6574   32.5854   32.2511 C.ar        1 L04      -0.0571
     44 N1         33.4618   41.0141   24.4715 N.am        1 L04      -0.2613
     45 N18        37.3220   36.8438   23.6576 N.am        1 L04      -0.2649
     46 N29        39.5471   35.4702   21.4433 N.am        1 L04      -0.2320
     47 O1         33.1574   41.6901   22.3112 O.2         1 L04      -0.3882
     48 O4         33.3007   36.8392   26.3129 O.co2       1 L04      -0.5687
     49 O5         31.0851   36.4717   25.9490 O.co2       1 L04      -0.5687
     50 O17        36.1561   35.5912   22.2566 O.2         1 L04      -0.3966
     51 O28        39.8886   35.6249   23.6450 O.2         1 L04      -0.3823
     52 F1         41.3732   30.7586   33.8158 F           1 L04      -0.1835
     53 H1         32.8187   36.7419   22.1959 H           1 L04       0.0286
     54 H2         31.2287   36.9485   22.8958 H           1 L04       0.0286
     55 H3         31.8644   35.0926   23.9453 H           1 L04       0.0467
     56 H4         40.3005   39.9947   20.2188 H           1 L04       0.0232
     57 H5         38.7955   40.2844   21.1072 H           1 L04       0.0232
     58 H6         39.0813   38.7279   20.3079 H           1 L04       0.0232
     59 H7         40.2078   31.2909   29.5534 H           1 L04       0.0606
     60 H8         35.1368   36.5982   24.9807 H           1 L04       0.0541
     61 H9         37.1511   35.1006   25.5892 H           1 L04       0.0315
     62 H10        36.1866   33.7313   25.0416 H           1 L04       0.0315
     63 H11        34.5639   34.0913   26.8511 H           1 L04       0.0430
     64 H12        35.2716   35.6421   27.2562 H           1 L04       0.0430
     65 H13        35.5639   32.0619   27.7986 H           1 L04       0.0559
     66 H14        36.9780   31.0872   29.4766 H           1 L04       0.0604
     67 H15        38.9046   34.8093   30.0100 H           1 L04       0.0604
     68 H16        37.5136   35.7733   28.3090 H           1 L04       0.0559
     69 H17        41.6519   30.3947   31.2691 H           1 L04       0.0604
     70 H18        34.0262   34.7763   22.9204 H           1 L04       0.0313
     71 H19        33.8142   34.1068   24.4849 H           1 L04       0.0313
     72 H20        37.9442   37.3798   21.7863 H           1 L04       0.0805
     73 H21        39.6783   38.2148   24.1434 H           1 L04       0.0315
     74 H22        38.4381   39.2159   23.4103 H           1 L04       0.0315
     75 H23        40.8907   38.1836   21.8817 H           1 L04       0.0298
     76 H24        41.5869   39.7187   23.7219 H           1 L04       0.0232
     77 H25        40.5155   40.9678   23.0633 H           1 L04       0.0232
     78 H26        41.8932   40.4009   22.1178 H           1 L04       0.0232
     79 H27        32.4782   39.0320   22.5276 H           1 L04       0.0267
     80 H28        33.6870   38.5513   23.7082 H           1 L04       0.0267
     81 H29        31.8851   38.6516   25.4978 H           1 L04       0.0285
     82 H30        30.7048   39.0924   24.2764 H           1 L04       0.0285
     83 H31        31.9119   40.9114   25.8484 H           1 L04       0.0523
     84 H32        31.4022   41.2693   24.2142 H           1 L04       0.0523
     85 H33        34.6895   39.8377   25.7232 H           1 L04       0.0699
     86 H34        34.4456   41.5338   26.2496 H           1 L04       0.0699
     87 H35        40.3102   35.0932   19.0348 H           1 L04       0.0502
     88 H36        41.7792   33.3902   18.1694 H           1 L04       0.0577
     89 H37        42.7481   31.7363   19.6606 H           1 L04       0.0487
     90 H38        42.2166   31.7833   22.0293 H           1 L04       0.0577
     91 H39        40.7378   33.4597   22.9078 H           1 L04       0.0502
     92 H40        35.7427   42.2284   21.3253 H           1 L04       0.0651
     93 H41        37.3943   41.1980   25.7982 H           1 L04       0.0569
     94 H42        38.9217   42.0179   24.0795 H           1 L04       0.0635
     95 H43        38.1038   42.5220   21.8481 H           1 L04       0.0572
     96 H44        39.3069   32.2608   34.2339 H           1 L04       0.0604
     97 H45        37.8706   33.1777   32.5253 H           1 L04       0.0606
     98 H46        37.3799   37.2232   24.5577 H           1 L04       0.1883
     99 H47        39.0864   35.9014   20.7077 H           1 L04       0.2257
@<TRIPOS>BOND
     1     1    23   1
     2     1     2   1
     3     2    18   1
     4     2     3   1
     5     3    49  ar
     6     3    48  ar
     7    18     7   1
     8     7    16   1
     9     7     8   1
    10     8     9   1
    11     9    10   1
    12    10    15  ar
    13    10    11  ar
    14    11    12  ar
    15    12    13  ar
    16    13    14  ar
    17    13     5   1
    18     5    43  ar
    19     5     6  ar
    20     6    17  ar
    21    17    41  ar
    22    41    42  ar
    23    42    43  ar
    24    14    15  ar
    25    16    50   2
    26    16    45  am
    27    45    19   1
    28    19    27   1
    29    19    20   1
    30    20    21   1
    31    21     4   1
    32    21    22   1
    33    27    51   2
    34    27    46  am
    35    46    30   1
    36    30    35  ar
    37    30    31  ar
    38    31    32  ar
    39    32    33  ar
    40    33    34  ar
    41    34    35  ar
    42    23    24   1
    43    24    25   1
    44    25    44   1
    45    44    28   1
    46    44    26  am
    47    26    47   2
    48    26    29   1
    49    29    37  ar
    50    29    36  ar
    51    36    28   1
    52    36    38  ar
    53    38    39  ar
    54    39    40  ar
    55    40    37  ar
    56    41    52   1
    57     1    53   1
    58     1    54   1
    59     2    55   1
    60     4    56   1
    61     4    57   1
    62     4    58   1
    63     6    59   1
    64     7    60   1
    65     8    61   1
    66     8    62   1
    67     9    63   1
    68     9    64   1
    69    11    65   1
    70    12    66   1
    71    14    67   1
    72    15    68   1
    73    17    69   1
    74    18    70   1
    75    18    71   1
    76    19    72   1
    77    20    73   1
    78    20    74   1
    79    21    75   1
    80    22    76   1
    81    22    77   1
    82    22    78   1
    83    23    79   1
    84    23    80   1
    85    24    81   1
    86    24    82   1
    87    25    83   1
    88    25    84   1
    89    28    85   1
    90    28    86   1
    91    31    87   1
    92    32    88   1
    93    33    89   1
    94    34    90   1
    95    35    91   1
    96    37    92   1
    97    38    93   1
    98    39    94   1
    99    40    95   1
   100    42    96   1
   101    43    97   1
   102    45    98   1
   103    46    99   1
@<TRIPOS>SUBSTRUCTURE
     1  L04      1

