@<TRIPOS>MOLECULE
1hfs_ligand_045
    99   103
SMALL
GAST_HUCK
****
This file was generated by PARSER (from files_GN.cpp)

@<TRIPOS>ATOM
      1 C1         34.1225   37.2398   23.5133 C.3         1 L04      -0.0384
      2 C2         32.6957   37.7151   23.9670 C.3         1 L04       0.0141
      3 C3         32.4202   37.4110   25.3992 C.2         1 L04       0.0380
      4 C4         25.1794   36.7989   21.4194 C.3         1 L04      -0.0625
      5 C5         31.0858   40.0562   14.4730 C.ar        1 L04      -0.0257
      6 C6         30.6617   41.2821   13.9094 C.ar        1 L04      -0.0571
      7 C7         30.5901   38.1958   22.3407 C.3         1 L04       0.0523
      8 C8         30.7048   38.1357   20.7723 C.3         1 L04      -0.0232
      9 C9         29.6975   39.0047   19.9578 C.3         1 L04      -0.0166
     10 C10        30.0648   39.2037   18.5253 C.ar        1 L04      -0.0424
     11 C11        29.1980   38.8299   17.4693 C.ar        1 L04      -0.0596
     12 C12        29.5340   39.0971   16.1265 C.ar        1 L04      -0.0610
     13 C13        30.7507   39.7425   15.8122 C.ar        1 L04      -0.0267
     14 C14        31.6215   40.1145   16.8589 C.ar        1 L04      -0.0610
     15 C15        31.2761   39.8528   18.1972 C.ar        1 L04      -0.0596
     16 C16        29.1979   38.1794   22.8162 C.2         1 L04       0.1816
     17 C17        31.0432   41.6358   12.6012 C.ar        1 L04      -0.0282
     18 C18        31.5533   37.1426   23.0336 C.3         1 L04      -0.0186
     19 C19        27.2128   39.6373   23.3238 C.3         1 L04       0.1369
     20 C20        26.0904   38.5748   23.0387 C.3         1 L04      -0.0096
     21 C21        25.8649   38.1874   21.5407 C.3         1 L04      -0.0425
     22 C22        25.0670   39.2677   20.7611 C.3         1 L04      -0.0625
     23 C23        35.3489   37.8927   24.2427 C.3         1 L04      -0.0495
     24 C24        36.2737   38.7045   23.2831 C.3         1 L04      -0.0323
     25 C25        37.7174   38.9571   23.8057 C.3         1 L04       0.0356
     26 C26        39.3582   40.1262   22.3595 C.2         1 L04       0.2046
     27 C27        27.3836   40.0194   24.7302 C.2         1 L04       0.2292
     28 C28        39.0142   37.9084   21.9085 C.3         1 L04       0.0703
     29 C29        40.1424   39.8434   21.2804 C.ar        1 L04       0.0535
     30 C30        28.9645   40.8980   26.3975 C.ar        1 L04       0.0663
     31 C31        29.8430   42.0004   26.4686 C.ar        1 L04      -0.0413
     32 C32        30.3328   42.4561   27.7083 C.ar        1 L04      -0.0755
     33 C33        29.9580   41.8029   28.8951 C.ar        1 L04      -0.0772
     34 C34        29.1062   40.6881   28.8419 C.ar        1 L04      -0.0755
     35 C35        28.6204   40.2302   27.6033 C.ar        1 L04      -0.0413
     36 C36        39.9564   38.4997   20.9654 C.ar        1 L04      -0.0003
     37 C37        41.0089   40.6431   20.5063 C.ar        1 L04      -0.0484
     38 C38        40.5992   37.9100   19.8609 C.ar        1 L04      -0.0524
     39 C39        41.4585   38.7052   19.0727 C.ar        1 L04      -0.0641
     40 C40        41.6673   40.0648   19.3983 C.ar        1 L04      -0.0630
     41 C41        31.8385   40.7618   11.8381 C.ar        1 L04       0.1322
     42 C42        32.2529   39.5333   12.3829 C.ar        1 L04      -0.0282
     43 C43        31.8875   39.1848   13.7000 C.ar        1 L04      -0.0571
     44 N1         38.6769   39.0428   22.7263 N.am        1 L04      -0.2613
     45 N18        28.5043   39.3182   22.7768 N.am        1 L04      -0.2649
     46 N29        28.5513   40.5105   25.1471 N.am        1 L04      -0.2320
     47 O1         39.2815   41.2355   22.8696 O.2         1 L04      -0.3882
     48 O4         31.2440   37.7600   25.9618 O.co2       1 L04      -0.5687
     49 O5         33.3079   36.7850   26.2047 O.co2       1 L04      -0.5687
     50 O17        28.6612   37.1541   23.2351 O.2         1 L04      -0.3966
     51 O28        26.4047   40.0170   25.4823 O.2         1 L04      -0.3823
     52 F1         32.1951   41.0940   10.6281 F           1 L04      -0.1835
     53 H1         34.1805   36.1514   23.6285 H           1 L04       0.0286
     54 H2         34.2165   37.4369   22.4408 H           1 L04       0.0286
     55 H3         32.7123   38.8054   23.8797 H           1 L04       0.0467
     56 H4         25.0237   36.5475   20.3701 H           1 L04       0.0232
     57 H5         24.2159   36.7882   21.9342 H           1 L04       0.0232
     58 H6         25.8180   36.0302   21.8554 H           1 L04       0.0232
     59 H7         30.0881   41.9333   14.4554 H           1 L04       0.0606
     60 H8         30.9771   39.1831   22.6044 H           1 L04       0.0541
     61 H9         30.6108   37.0986   20.4411 H           1 L04       0.0315
     62 H10        31.7136   38.4742   20.5102 H           1 L04       0.0315
     63 H11        29.6120   39.9970   20.4073 H           1 L04       0.0430
     64 H12        28.7098   38.5387   20.0160 H           1 L04       0.0430
     65 H13        28.3105   38.3682   17.6701 H           1 L04       0.0559
     66 H14        28.8830   38.8227   15.3823 H           1 L04       0.0604
     67 H15        32.5034   40.5978   16.6552 H           1 L04       0.0604
     68 H16        31.9084   40.1635   18.9376 H           1 L04       0.0559
     69 H17        30.7438   42.5331   12.2136 H           1 L04       0.0604
     70 H18        30.9828   36.3857   23.5830 H           1 L04       0.0313
     71 H19        32.0295   36.5653   22.2362 H           1 L04       0.0313
     72 H20        26.9061   40.5580   22.8166 H           1 L04       0.0805
     73 H21        25.1471   38.9466   23.4559 H           1 L04       0.0315
     74 H22        26.3684   37.6738   23.6048 H           1 L04       0.0315
     75 H23        26.8450   38.0883   21.0682 H           1 L04       0.0298
     76 H24        25.6196   40.2087   20.7419 H           1 L04       0.0232
     77 H25        24.0906   39.4349   21.2241 H           1 L04       0.0232
     78 H26        24.9131   38.9482   19.7278 H           1 L04       0.0232
     79 H27        35.9429   37.0937   24.6971 H           1 L04       0.0267
     80 H28        35.0061   38.5488   25.0507 H           1 L04       0.0267
     81 H29        35.8032   39.6728   23.0717 H           1 L04       0.0285
     82 H30        36.3492   38.1510   22.3414 H           1 L04       0.0285
     83 H31        38.0179   38.1389   24.4673 H           1 L04       0.0523
     84 H32        37.7060   39.8726   24.4061 H           1 L04       0.0523
     85 H33        38.1537   37.5144   21.3659 H           1 L04       0.0699
     86 H34        39.4979   37.1215   22.4922 H           1 L04       0.0699
     87 H35        30.1323   42.4916   25.6204 H           1 L04       0.0502
     88 H36        30.9584   43.2616   27.7511 H           1 L04       0.0577
     89 H37        30.3087   42.1313   29.8013 H           1 L04       0.0487
     90 H38        28.8385   40.2005   29.7026 H           1 L04       0.0577
     91 H39        28.0371   39.3964   27.5927 H           1 L04       0.0502
     92 H40        41.1619   41.6272   20.7415 H           1 L04       0.0651
     93 H41        40.4406   36.9252   19.6279 H           1 L04       0.0569
     94 H42        41.9315   38.2934   18.2621 H           1 L04       0.0635
     95 H43        42.2936   40.6342   18.8216 H           1 L04       0.0572
     96 H44        32.8244   38.8928   11.8288 H           1 L04       0.0604
     97 H45        32.2086   38.2903   14.0857 H           1 L04       0.0606
     98 H46        28.9683   40.0776   22.3819 H           1 L04       0.1883
     99 H47        29.2230   40.6224   24.4483 H           1 L04       0.2257
@<TRIPOS>BOND
     1     1    23   1
     2     1     2   1
     3     2    18   1
     4     2     3   1
     5     3    49  ar
     6     3    48  ar
     7    18     7   1
     8     7    16   1
     9     7     8   1
    10     8     9   1
    11     9    10   1
    12    10    15  ar
    13    10    11  ar
    14    11    12  ar
    15    12    13  ar
    16    13    14  ar
    17    13     5   1
    18     5    43  ar
    19     5     6  ar
    20     6    17  ar
    21    17    41  ar
    22    41    42  ar
    23    42    43  ar
    24    14    15  ar
    25    16    50   2
    26    16    45  am
    27    45    19   1
    28    19    27   1
    29    19    20   1
    30    20    21   1
    31    21     4   1
    32    21    22   1
    33    27    51   2
    34    27    46  am
    35    46    30   1
    36    30    35  ar
    37    30    31  ar
    38    31    32  ar
    39    32    33  ar
    40    33    34  ar
    41    34    35  ar
    42    23    24   1
    43    24    25   1
    44    25    44   1
    45    44    28   1
    46    44    26  am
    47    26    47   2
    48    26    29   1
    49    29    37  ar
    50    29    36  ar
    51    36    28   1
    52    36    38  ar
    53    38    39  ar
    54    39    40  ar
    55    40    37  ar
    56    41    52   1
    57     1    53   1
    58     1    54   1
    59     2    55   1
    60     4    56   1
    61     4    57   1
    62     4    58   1
    63     6    59   1
    64     7    60   1
    65     8    61   1
    66     8    62   1
    67     9    63   1
    68     9    64   1
    69    11    65   1
    70    12    66   1
    71    14    67   1
    72    15    68   1
    73    17    69   1
    74    18    70   1
    75    18    71   1
    76    19    72   1
    77    20    73   1
    78    20    74   1
    79    21    75   1
    80    22    76   1
    81    22    77   1
    82    22    78   1
    83    23    79   1
    84    23    80   1
    85    24    81   1
    86    24    82   1
    87    25    83   1
    88    25    84   1
    89    28    85   1
    90    28    86   1
    91    31    87   1
    92    32    88   1
    93    33    89   1
    94    34    90   1
    95    35    91   1
    96    37    92   1
    97    38    93   1
    98    39    94   1
    99    40    95   1
   100    42    96   1
   101    43    97   1
   102    45    98   1
   103    46    99   1
@<TRIPOS>SUBSTRUCTURE
     1  L04      1

