@<TRIPOS>MOLECULE
1hnn_ligand_003
    27    28
SMALL
GAST_HUCK
****
This file was generated by PARSER (from files_GN.cpp)

@<TRIPOS>ATOM
      1 C4         27.7573   45.6931   21.1204 C.ar        1 SKF      -0.0647
      2 C5         28.2066   46.9723   21.4922 C.ar        1 SKF      -0.0489
      3 C6         29.4940   47.4159   21.1298 C.ar        1 SKF       0.0945
      4 C7         30.3645   46.5215   20.4783 C.ar        1 SKF      -0.0353
      5 S          29.9655   49.0599   21.4543 S.o2        1 SKF       0.0613
      6 C8         29.9403   45.2191   20.1374 C.ar        1 SKF       0.0053
      7 C9         28.6026   44.8170   20.4057 C.ar        1 SKF      -0.0308
      8 O1         29.5920   49.4729   22.9430 O.2         1 SKF      -0.1515
      9 O2         29.0494   49.9343   20.4925 O.2         1 SKF      -0.1515
     10 N          31.5432   49.4849   21.0616 N.am        1 SKF      -0.2618
     11 C1         30.8980   44.2784   19.5004 C.3         1 SKF      -0.0020
     12 C2         29.0598   42.7001   19.0696 C.3         1 SKF      -0.0238
     13 C3         28.0808   43.4843   19.9818 C.3         1 SKF       0.0189
     14 N1         30.4323   42.8783   19.5820 N.4         1 SKF       0.2394
     15 H1         26.8019   45.4090   21.3628 H           1 SKF       0.0538
     16 H2         27.5711   47.5836   22.0025 H           1 SKF       0.0561
     17 H3         31.3148   46.8136   20.2480 H           1 SKF       0.0558
     18 H4         31.7468   50.3912   20.7858 H           1 SKF       0.1634
     19 H5         32.2522   48.8278   21.1114 H           1 SKF       0.1634
     20 H6         31.8591   44.3245   20.0094 H           1 SKF       0.0964
     21 H7         31.0521   44.5606   18.4550 H           1 SKF       0.0964
     22 H8         28.9944   43.0579   18.0386 H           1 SKF       0.0836
     23 H9         28.8064   41.6386   19.0794 H           1 SKF       0.0836
     24 H10        27.1360   43.6081   19.4480 H           1 SKF       0.0463
     25 H11        27.8801   42.8965   20.8801 H           1 SKF       0.0463
     26 H12        30.4113   42.5841   20.5586 H           1 SKF       0.2028
     27 H13        31.0843   42.2717   19.0863 H           1 SKF       0.2028
@<TRIPOS>BOND
     1     1     2  ar
     2     1     7  ar
     3     2     3  ar
     4     3     4  ar
     5     3     5   1
     6     4     6  ar
     7     5     8   2
     8     5     9   2
     9     5    10  am
    10     6     7  ar
    11     6    11   1
    12     7    13   1
    13    11    14   1
    14    13    12   1
    15    12    14   1
    16     1    15   1
    17     2    16   1
    18     4    17   1
    19    10    18   1
    20    10    19   1
    21    11    20   1
    22    11    21   1
    23    12    22   1
    24    12    23   1
    25    13    24   1
    26    13    25   1
    27    14    26   1
    28    14    27   1
@<TRIPOS>SUBSTRUCTURE
     1  SKF      1

