@<TRIPOS>MOLECULE
1hnn_ligand_024
    27    28
SMALL
GAST_HUCK
****
This file was generated by PARSER (from files_GN.cpp)

@<TRIPOS>ATOM
      1 C4         28.8381   45.7538   13.2053 C.ar        1 SKF      -0.0647
      2 C5         28.8419   45.5657   14.5995 C.ar        1 SKF      -0.0489
      3 C6         28.1237   44.4990   15.1752 C.ar        1 SKF       0.0945
      4 C7         27.4033   43.6286   14.3349 C.ar        1 SKF      -0.0353
      5 S          28.1399   44.2446   16.8996 S.o2        1 SKF       0.0613
      6 C8         27.4057   43.8102   12.9332 C.ar        1 SKF       0.0053
      7 C9         28.1052   44.8995   12.3524 C.ar        1 SKF      -0.0308
      8 O1         27.1063   43.1479   17.4102 O.2         1 SKF      -0.1515
      9 O2         27.7131   45.6338   17.5437 O.2         1 SKF      -0.1515
     10 N          29.6675   43.9134   17.5162 N.am        1 SKF      -0.2618
     11 C1         26.6345   42.8774   12.0833 C.3         1 SKF      -0.0020
     12 C2         26.9674   44.3640   10.1329 C.3         1 SKF      -0.0238
     13 C3         28.0752   45.1513   10.8771 C.3         1 SKF       0.0189
     14 N1         26.9286   42.9810   10.6333 N.4         1 SKF       0.2394
     15 H1         29.3811   46.5210   12.8112 H           1 SKF       0.0538
     16 H2         29.3752   46.2108   15.1888 H           1 SKF       0.0561
     17 H3         26.8765   42.8514   14.7438 H           1 SKF       0.0558
     18 H4         29.9908   44.3942   18.2941 H           1 SKF       0.1634
     19 H5         30.1910   43.1845   17.1469 H           1 SKF       0.1634
     20 H6         25.5731   43.0679   12.2529 H           1 SKF       0.0964
     21 H7         26.8617   41.8544   12.3898 H           1 SKF       0.0964
     22 H8         27.1714   44.3468    9.0608 H           1 SKF       0.0836
     23 H9         25.9902   44.8337   10.2766 H           1 SKF       0.0836
     24 H10        29.0417   44.8744   10.4482 H           1 SKF       0.0463
     25 H11        27.9102   46.2139   10.6856 H           1 SKF       0.0463
     26 H12        26.2178   42.4721   10.1072 H           1 SKF       0.2028
     27 H13        27.8382   42.5511   10.4512 H           1 SKF       0.2028
@<TRIPOS>BOND
     1     1     2  ar
     2     1     7  ar
     3     2     3  ar
     4     3     4  ar
     5     3     5   1
     6     4     6  ar
     7     5     8   2
     8     5     9   2
     9     5    10  am
    10     6     7  ar
    11     6    11   1
    12     7    13   1
    13    11    14   1
    14    13    12   1
    15    12    14   1
    16     1    15   1
    17     2    16   1
    18     4    17   1
    19    10    18   1
    20    10    19   1
    21    11    20   1
    22    11    21   1
    23    12    22   1
    24    12    23   1
    25    13    24   1
    26    13    25   1
    27    14    26   1
    28    14    27   1
@<TRIPOS>SUBSTRUCTURE
     1  SKF      1

