@<TRIPOS>MOLECULE
1hnn_ligand_021
    27    28
SMALL
GAST_HUCK
****
This file was generated by PARSER (from files_GN.cpp)

@<TRIPOS>ATOM
      1 C4         25.2103   43.1706   14.8661 C.ar        1 SKF      -0.0647
      2 C5         25.5293   43.2858   13.5010 C.ar        1 SKF      -0.0489
      3 C6         26.8611   43.1392   13.0629 C.ar        1 SKF       0.0945
      4 C7         27.8693   42.8731   14.0136 C.ar        1 SKF      -0.0353
      5 S          27.2503   43.2878   11.3688 S.o2        1 SKF       0.0613
      6 C8         27.5521   42.7499   15.3853 C.ar        1 SKF       0.0053
      7 C9         26.2051   42.8602   15.8154 C.ar        1 SKF      -0.0308
      8 O1         25.9901   43.6263   10.4575 O.2         1 SKF      -0.1515
      9 O2         27.8501   41.8906   10.9069 O.2         1 SKF      -0.1515
     10 N          28.4541   44.4226   11.0893 N.am        1 SKF      -0.2618
     11 C1         28.6280   42.4494   16.3638 C.3         1 SKF      -0.0020
     12 C2         26.9474   42.0351   18.1084 C.3         1 SKF      -0.0238
     13 C3         25.8276   42.6605   17.2437 C.3         1 SKF       0.0189
     14 N1         28.2393   42.6556   17.7745 N.4         1 SKF       0.2394
     15 H1         24.2402   43.2950   15.1589 H           1 SKF       0.0538
     16 H2         24.7800   43.4710   12.8312 H           1 SKF       0.0561
     17 H3         28.8427   42.7691   13.7018 H           1 SKF       0.0558
     18 H4         29.1431   44.2433   10.4259 H           1 SKF       0.1634
     19 H5         28.5308   45.2028   11.6664 H           1 SKF       0.1634
     20 H6         29.4903   43.0891   16.1744 H           1 SKF       0.0964
     21 H7         28.9179   41.4064   16.2311 H           1 SKF       0.0964
     22 H8         26.9978   40.9579   17.9279 H           1 SKF       0.0836
     23 H9         26.7315   42.1936   19.1684 H           1 SKF       0.0836
     24 H10        24.9592   42.0074   17.3096 H           1 SKF       0.0463
     25 H11        25.5602   43.6266   17.6650 H           1 SKF       0.0463
     26 H12        28.1729   43.6605   17.9541 H           1 SKF       0.2028
     27 H13        28.9639   42.2611   18.3749 H           1 SKF       0.2028
@<TRIPOS>BOND
     1     1     2  ar
     2     1     7  ar
     3     2     3  ar
     4     3     4  ar
     5     3     5   1
     6     4     6  ar
     7     5     8   2
     8     5     9   2
     9     5    10  am
    10     6     7  ar
    11     6    11   1
    12     7    13   1
    13    11    14   1
    14    13    12   1
    15    12    14   1
    16     1    15   1
    17     2    16   1
    18     4    17   1
    19    10    18   1
    20    10    19   1
    21    11    20   1
    22    11    21   1
    23    12    22   1
    24    12    23   1
    25    13    24   1
    26    13    25   1
    27    14    26   1
    28    14    27   1
@<TRIPOS>SUBSTRUCTURE
     1  SKF      1

