@<TRIPOS>MOLECULE
1hnn_ligand_016
    27    28
SMALL
GAST_HUCK
****
This file was generated by PARSER (from files_GN.cpp)

@<TRIPOS>ATOM
      1 C4         28.8573   47.4573   22.1306 C.ar        1 SKF      -0.0647
      2 C5         29.0232   46.2862   21.3741 C.ar        1 SKF      -0.0489
      3 C6         30.1000   46.1712   20.4752 C.ar        1 SKF       0.0945
      4 C7         31.0106   47.2386   20.3546 C.ar        1 SKF      -0.0353
      5 S          30.2999   44.7377   19.5080 S.o2        1 SKF       0.0613
      6 C8         30.8466   48.4311   21.0972 C.ar        1 SKF       0.0053
      7 C9         29.7482   48.5460   21.9919 C.ar        1 SKF      -0.0308
      8 O1         31.8046   44.2256   19.4804 O.2         1 SKF      -0.1515
      9 O2         29.9463   45.1587   18.0154 O.2         1 SKF      -0.1515
     10 N          29.2454   43.4889   19.9016 N.am        1 SKF      -0.2618
     11 C1         31.8412   49.5340   20.9631 C.3         1 SKF      -0.0020
     12 C2         30.3873   50.9842   22.3422 C.3         1 SKF      -0.0238
     13 C3         29.5478   49.7730   22.8137 C.3         1 SKF       0.0189
     14 N1         31.7613   50.5473   22.0383 N.4         1 SKF       0.2394
     15 H1         28.0660   47.5135   22.7755 H           1 SKF       0.0538
     16 H2         28.3495   45.5255   21.4825 H           1 SKF       0.0561
     17 H3         31.8099   47.1400   19.7258 H           1 SKF       0.0558
     18 H4         28.7618   43.0282   19.1994 H           1 SKF       0.1634
     19 H5         29.2350   43.1306   20.8025 H           1 SKF       0.1634
     20 H6         31.7157   50.0316   20.0004 H           1 SKF       0.0964
     21 H7         32.8474   49.1118   21.0018 H           1 SKF       0.0964
     22 H8         30.4178   51.7409   23.1287 H           1 SKF       0.0836
     23 H9         29.9379   51.4332   21.4522 H           1 SKF       0.0836
     24 H10        29.8085   49.5400   23.8484 H           1 SKF       0.0463
     25 H11        28.4999   50.0739   22.7897 H           1 SKF       0.0463
     26 H12        32.3285   51.3597   21.7863 H           1 SKF       0.2028
     27 H13        32.1471   50.1174   22.8779 H           1 SKF       0.2028
@<TRIPOS>BOND
     1     1     2  ar
     2     1     7  ar
     3     2     3  ar
     4     3     4  ar
     5     3     5   1
     6     4     6  ar
     7     5     8   2
     8     5     9   2
     9     5    10  am
    10     6     7  ar
    11     6    11   1
    12     7    13   1
    13    11    14   1
    14    13    12   1
    15    12    14   1
    16     1    15   1
    17     2    16   1
    18     4    17   1
    19    10    18   1
    20    10    19   1
    21    11    20   1
    22    11    21   1
    23    12    22   1
    24    12    23   1
    25    13    24   1
    26    13    25   1
    27    14    26   1
    28    14    27   1
@<TRIPOS>SUBSTRUCTURE
     1  SKF      1

