@<TRIPOS>MOLECULE
1hnn_ligand_022
    27    28
SMALL
GAST_HUCK
****
This file was generated by PARSER (from files_GN.cpp)

@<TRIPOS>ATOM
      1 C4         27.2719   44.6143   21.1483 C.ar        1 SKF      -0.0647
      2 C5         27.6085   43.8217   20.0337 C.ar        1 SKF      -0.0489
      3 C6         28.6908   44.1963   19.2081 C.ar        1 SKF       0.0945
      4 C7         29.3991   45.3768   19.4915 C.ar        1 SKF      -0.0353
      5 S          29.2165   43.2219   17.8710 S.o2        1 SKF       0.0613
      6 C8         29.0731   46.1675   20.6047 C.ar        1 SKF       0.0053
      7 C9         28.0088   45.7680   21.4656 C.ar        1 SKF      -0.0308
      8 O1         28.6584   43.7820   16.4982 O.2         1 SKF      -0.1515
      9 O2         28.7480   41.7097   18.0342 O.2         1 SKF      -0.1515
     10 N          30.8967   43.2291   17.8351 N.am        1 SKF      -0.2618
     11 C1         29.8810   47.3730   20.8924 C.3         1 SKF      -0.0020
     12 C2         28.7566   47.5750   23.0812 C.3         1 SKF      -0.0238
     13 C3         27.6636   46.5537   22.6783 C.3         1 SKF       0.0189
     14 N1         29.3012   48.2684   21.9092 N.4         1 SKF       0.2394
     15 H1         26.4831   44.3353   21.7410 H           1 SKF       0.0538
     16 H2         27.0784   42.9723   19.8394 H           1 SKF       0.0561
     17 H3         30.1800   45.6608   18.8915 H           1 SKF       0.0558
     18 H4         31.3780   42.3937   17.8227 H           1 SKF       0.1634
     19 H5         31.3590   44.0103   18.1557 H           1 SKF       0.1634
     20 H6         29.9902   47.9709   19.9896 H           1 SKF       0.0964
     21 H7         30.8713   47.0522   21.2138 H           1 SKF       0.0964
     22 H8         29.5697   47.0686   23.6053 H           1 SKF       0.0836
     23 H9         28.3304   48.3323   23.7384 H           1 SKF       0.0836
     24 H10        27.5043   45.8765   23.5235 H           1 SKF       0.0463
     25 H11        26.7178   47.0669   22.4875 H           1 SKF       0.0463
     26 H12        28.5339   48.8032   21.5014 H           1 SKF       0.2028
     27 H13        30.0253   48.9162   22.2232 H           1 SKF       0.2028
@<TRIPOS>BOND
     1     1     2  ar
     2     1     7  ar
     3     2     3  ar
     4     3     4  ar
     5     3     5   1
     6     4     6  ar
     7     5     8   2
     8     5     9   2
     9     5    10  am
    10     6     7  ar
    11     6    11   1
    12     7    13   1
    13    11    14   1
    14    13    12   1
    15    12    14   1
    16     1    15   1
    17     2    16   1
    18     4    17   1
    19    10    18   1
    20    10    19   1
    21    11    20   1
    22    11    21   1
    23    12    22   1
    24    12    23   1
    25    13    24   1
    26    13    25   1
    27    14    26   1
    28    14    27   1
@<TRIPOS>SUBSTRUCTURE
     1  SKF      1

