@<TRIPOS>MOLECULE
1hnn_ligand_013
    27    28
SMALL
GAST_HUCK
****
This file was generated by PARSER (from files_GN.cpp)

@<TRIPOS>ATOM
      1 C4         29.8914   45.0495   18.9134 C.ar        1 SKF      -0.0647
      2 C5         29.7504   45.7842   20.1024 C.ar        1 SKF      -0.0489
      3 C6         28.6972   45.4968   20.9928 C.ar        1 SKF       0.0945
      4 C7         27.7875   44.4672   20.6820 C.ar        1 SKF      -0.0353
      5 S          28.5104   46.4074   22.4625 S.o2        1 SKF       0.0613
      6 C8         27.9091   43.7343   19.4811 C.ar        1 SKF       0.0053
      7 C9         28.9877   44.0094   18.5981 C.ar        1 SKF      -0.0308
      8 O1         29.3206   47.7754   22.4207 O.2         1 SKF      -0.1515
      9 O2         29.0875   45.5020   23.6350 O.2         1 SKF      -0.1515
     10 N          26.9035   46.7055   22.8503 N.am        1 SKF      -0.2618
     11 C1         26.9225   42.6652   19.1751 C.3         1 SKF      -0.0020
     12 C2         28.3372   41.9377   17.2816 C.3         1 SKF      -0.0238
     13 C3         29.1800   43.2361   17.3425 C.3         1 SKF       0.0189
     14 N1         26.9698   42.1899   17.7734 N.4         1 SKF       0.2394
     15 H1         30.6668   45.2720   18.2821 H           1 SKF       0.0538
     16 H2         30.4235   46.5267   20.3095 H           1 SKF       0.0561
     17 H3         27.0221   44.2569   21.3282 H           1 SKF       0.0558
     18 H4         26.6333   46.7710   23.7792 H           1 SKF       0.1634
     19 H5         26.2352   46.7426   22.1502 H           1 SKF       0.1634
     20 H6         25.9110   43.0360   19.3516 H           1 SKF       0.0964
     21 H7         27.1004   41.8265   19.8509 H           1 SKF       0.0964
     22 H8         28.8103   41.1645   17.8922 H           1 SKF       0.0836
     23 H9         28.2813   41.5730   16.2537 H           1 SKF       0.0836
     24 H10        30.2320   42.9587   17.2479 H           1 SKF       0.0463
     25 H11        28.9183   43.8780   16.4979 H           1 SKF       0.0463
     26 H12        26.5445   42.9014   17.1752 H           1 SKF       0.2028
     27 H13        26.4228   41.3299   17.6936 H           1 SKF       0.2028
@<TRIPOS>BOND
     1     1     2  ar
     2     1     7  ar
     3     2     3  ar
     4     3     4  ar
     5     3     5   1
     6     4     6  ar
     7     5     8   2
     8     5     9   2
     9     5    10  am
    10     6     7  ar
    11     6    11   1
    12     7    13   1
    13    11    14   1
    14    13    12   1
    15    12    14   1
    16     1    15   1
    17     2    16   1
    18     4    17   1
    19    10    18   1
    20    10    19   1
    21    11    20   1
    22    11    21   1
    23    12    22   1
    24    12    23   1
    25    13    24   1
    26    13    25   1
    27    14    26   1
    28    14    27   1
@<TRIPOS>SUBSTRUCTURE
     1  SKF      1

