@<TRIPOS>MOLECULE
1hnn_ligand_026
    27    28
SMALL
GAST_HUCK
****
This file was generated by PARSER (from files_GN.cpp)

@<TRIPOS>ATOM
      1 C4         28.0655   45.3981   15.2345 C.ar        1 SKF      -0.0647
      2 C5         27.7624   44.6055   16.3566 C.ar        1 SKF      -0.0489
      3 C6         27.5219   43.2313   16.2077 C.ar        1 SKF       0.0945
      4 C7         27.6131   42.6497   14.9222 C.ar        1 SKF      -0.0353
      5 S          27.1342   42.2562   17.5936 S.o2        1 SKF       0.0613
      6 C8         27.8980   43.4345   13.7882 C.ar        1 SKF       0.0053
      7 C9         28.1078   44.8271   13.9438 C.ar        1 SKF      -0.0308
      8 O1         26.3576   43.0233   18.7495 O.2         1 SKF      -0.1515
      9 O2         28.5340   41.8322   18.2285 O.2         1 SKF      -0.1515
     10 N          26.3231   40.8366   17.2013 N.am        1 SKF      -0.2618
     11 C1         27.9204   42.8030   12.4428 C.3         1 SKF      -0.0020
     12 C2         28.1004   45.0409   11.3925 C.3         1 SKF      -0.0238
     13 C3         28.3625   45.7048   12.7712 C.3         1 SKF       0.0189
     14 N1         28.5546   43.6385   11.3935 N.4         1 SKF       0.2394
     15 H1         28.2274   46.3975   15.3611 H           1 SKF       0.0538
     16 H2         27.7066   45.0511   17.2763 H           1 SKF       0.0561
     17 H3         27.4548   41.6409   14.8151 H           1 SKF       0.0558
     18 H4         26.7353   39.9663   17.3893 H           1 SKF       0.1634
     19 H5         25.4990   40.8725   16.7017 H           1 SKF       0.1634
     20 H6         26.8949   42.5695   12.1423 H           1 SKF       0.0964
     21 H7         28.4770   41.8682   12.4849 H           1 SKF       0.0964
     22 H8         28.6195   45.5891   10.6018 H           1 SKF       0.0836
     23 H9         27.0351   45.0465   11.1416 H           1 SKF       0.0836
     24 H10        29.3966   46.0499   12.8324 H           1 SKF       0.0463
     25 H11        27.7197   46.5863   12.8477 H           1 SKF       0.0463
     26 H12        28.3540   43.2278   10.4779 H           1 SKF       0.2028
     27 H13        29.5647   43.6405   11.5403 H           1 SKF       0.2028
@<TRIPOS>BOND
     1     1     2  ar
     2     1     7  ar
     3     2     3  ar
     4     3     4  ar
     5     3     5   1
     6     4     6  ar
     7     5     8   2
     8     5     9   2
     9     5    10  am
    10     6     7  ar
    11     6    11   1
    12     7    13   1
    13    11    14   1
    14    13    12   1
    15    12    14   1
    16     1    15   1
    17     2    16   1
    18     4    17   1
    19    10    18   1
    20    10    19   1
    21    11    20   1
    22    11    21   1
    23    12    22   1
    24    12    23   1
    25    13    24   1
    26    13    25   1
    27    14    26   1
    28    14    27   1
@<TRIPOS>SUBSTRUCTURE
     1  SKF      1

