@<TRIPOS>MOLECULE
1hnn_ligand_020
    27    28
SMALL
GAST_HUCK
****
This file was generated by PARSER (from files_GN.cpp)

@<TRIPOS>ATOM
      1 C4         30.0523   43.6733   18.9160 C.ar        1 SKF      -0.0647
      2 C5         29.6766   43.5144   17.5724 C.ar        1 SKF      -0.0489
      3 C6         28.8321   44.4534   16.9467 C.ar        1 SKF       0.0945
      4 C7         28.3508   45.5484   17.6940 C.ar        1 SKF      -0.0353
      5 S          28.3650   44.2583   15.2780 S.o2        1 SKF       0.0613
      6 C8         28.7271   45.7222   19.0456 C.ar        1 SKF       0.0053
      7 C9         29.5700   44.7648   19.6690 C.ar        1 SKF      -0.0308
      8 O1         26.8415   43.8185   15.1569 O.2         1 SKF      -0.1515
      9 O2         29.2383   43.0997   14.6255 O.2         1 SKF      -0.1515
     10 N          28.6340   45.6151   14.3239 N.am        1 SKF      -0.2618
     11 C1         28.1919   46.8679   19.8264 C.3         1 SKF      -0.0020
     12 C2         29.0737   45.8765   21.8925 C.3         1 SKF      -0.0238
     13 C3         29.9877   44.9212   21.0856 C.3         1 SKF       0.0189
     14 N1         28.8754   47.1135   21.1142 N.4         1 SKF       0.2394
     15 H1         30.6720   42.9801   19.3448 H           1 SKF       0.0538
     16 H2         30.0255   42.7060   17.0588 H           1 SKF       0.0561
     17 H3         27.7245   46.2272   17.2525 H           1 SKF       0.0558
     18 H4         29.1135   45.5244   13.4825 H           1 SKF       0.1634
     19 H5         28.2591   46.4721   14.5803 H           1 SKF       0.1634
     20 H6         27.1444   46.6644   20.0424 H           1 SKF       0.0964
     21 H7         28.2554   47.7862   19.2405 H           1 SKF       0.0964
     22 H8         29.5353   46.1273   22.8480 H           1 SKF       0.0836
     23 H9         28.1098   45.4011   22.0980 H           1 SKF       0.0836
     24 H10        31.0009   45.3248   21.0775 H           1 SKF       0.0463
     25 H11        30.0067   43.9500   21.5845 H           1 SKF       0.0463
     26 H12        28.3223   47.7823   21.6592 H           1 SKF       0.2028
     27 H13        29.7931   47.5248   20.9262 H           1 SKF       0.2028
@<TRIPOS>BOND
     1     1     2  ar
     2     1     7  ar
     3     2     3  ar
     4     3     4  ar
     5     3     5   1
     6     4     6  ar
     7     5     8   2
     8     5     9   2
     9     5    10  am
    10     6     7  ar
    11     6    11   1
    12     7    13   1
    13    11    14   1
    14    13    12   1
    15    12    14   1
    16     1    15   1
    17     2    16   1
    18     4    17   1
    19    10    18   1
    20    10    19   1
    21    11    20   1
    22    11    21   1
    23    12    22   1
    24    12    23   1
    25    13    24   1
    26    13    25   1
    27    14    26   1
    28    14    27   1
@<TRIPOS>SUBSTRUCTURE
     1  SKF      1

