@<TRIPOS>MOLECULE
1hnn_ligand_023
    27    28
SMALL
GAST_HUCK
****
This file was generated by PARSER (from files_GN.cpp)

@<TRIPOS>ATOM
      1 C4         27.4799   43.6889   20.1784 C.ar        1 SKF      -0.0647
      2 C5         28.8006   44.1703   20.2223 C.ar        1 SKF      -0.0489
      3 C6         29.6805   43.9114   19.1531 C.ar        1 SKF       0.0945
      4 C7         29.2335   43.1651   18.0474 C.ar        1 SKF      -0.0353
      5 S          31.3114   44.5271   19.2025 S.o2        1 SKF       0.0613
      6 C8         27.9151   42.6524   18.0075 C.ar        1 SKF       0.0053
      7 C9         27.0217   42.9460   19.0719 C.ar        1 SKF      -0.0308
      8 O1         31.5635   45.4515   20.4706 O.2         1 SKF      -0.1515
      9 O2         31.4220   45.4968   17.9468 O.2         1 SKF      -0.1515
     10 N          32.4601   43.3060   19.0721 N.am        1 SKF      -0.2618
     11 C1         27.4799   41.8401   16.8396 C.3         1 SKF      -0.0020
     12 C2         25.1610   41.9463   17.6860 C.3         1 SKF      -0.0238
     13 C3         25.6134   42.4664   19.0637 C.3         1 SKF       0.0189
     14 N1         26.2100   41.1219   17.0632 N.4         1 SKF       0.2394
     15 H1         26.8565   43.9007   20.9601 H           1 SKF       0.0538
     16 H2         29.1006   44.7097   21.0358 H           1 SKF       0.0561
     17 H3         29.8710   42.9831   17.2656 H           1 SKF       0.0558
     18 H4         33.3074   43.4809   18.6254 H           1 SKF       0.1634
     19 H5         32.2057   42.3841   19.2625 H           1 SKF       0.1634
     20 H6         28.2361   41.0835   16.6144 H           1 SKF       0.0964
     21 H7         27.3799   42.4951   15.9684 H           1 SKF       0.0964
     22 H8         24.9252   42.7868   17.0258 H           1 SKF       0.0836
     23 H9         24.2687   41.3340   17.8168 H           1 SKF       0.0836
     24 H10        24.9370   43.2718   19.3595 H           1 SKF       0.0463
     25 H11        25.5212   41.6605   19.7927 H           1 SKF       0.0463
     26 H12        26.3922   40.3168   17.6676 H           1 SKF       0.2028
     27 H13        25.8565   40.7869   16.1664 H           1 SKF       0.2028
@<TRIPOS>BOND
     1     1     2  ar
     2     1     7  ar
     3     2     3  ar
     4     3     4  ar
     5     3     5   1
     6     4     6  ar
     7     5     8   2
     8     5     9   2
     9     5    10  am
    10     6     7  ar
    11     6    11   1
    12     7    13   1
    13    11    14   1
    14    13    12   1
    15    12    14   1
    16     1    15   1
    17     2    16   1
    18     4    17   1
    19    10    18   1
    20    10    19   1
    21    11    20   1
    22    11    21   1
    23    12    22   1
    24    12    23   1
    25    13    24   1
    26    13    25   1
    27    14    26   1
    28    14    27   1
@<TRIPOS>SUBSTRUCTURE
     1  SKF      1

