@<TRIPOS>MOLECULE
1hnn_ligand_025
    27    28
SMALL
GAST_HUCK
****
This file was generated by PARSER (from files_GN.cpp)

@<TRIPOS>ATOM
      1 C4         29.6098   43.4833   20.1710 C.ar        1 SKF      -0.0647
      2 C5         30.9032   43.2009   19.6995 C.ar        1 SKF      -0.0489
      3 C6         31.8732   44.2197   19.6242 C.ar        1 SKF       0.0945
      4 C7         31.5310   45.5245   20.0316 C.ar        1 SKF      -0.0353
      5 S          33.4778   43.8574   19.0402 S.o2        1 SKF       0.0613
      6 C8         30.2303   45.8227   20.4979 C.ar        1 SKF       0.0053
      7 C9         29.2642   44.7829   20.5930 C.ar        1 SKF      -0.0308
      8 O1         34.3990   43.2864   20.2008 O.2         1 SKF      -0.1515
      9 O2         34.1548   45.1919   18.4927 O.2         1 SKF      -0.1515
     10 N          33.4341   42.7736   17.7589 N.am        1 SKF      -0.2618
     11 C1         29.8928   47.2139   20.8980 C.3         1 SKF      -0.0020
     12 C2         27.7467   46.4011   21.8251 C.3         1 SKF      -0.0238
     13 C3         27.8907   45.0396   21.1039 C.3         1 SKF       0.0189
     14 N1         28.4414   47.4534   21.0594 N.4         1 SKF       0.2394
     15 H1         28.9237   42.7251   20.2143 H           1 SKF       0.0538
     16 H2         31.1272   42.2467   19.4143 H           1 SKF       0.0561
     17 H3         32.2314   46.2682   19.9832 H           1 SKF       0.0558
     18 H4         34.1434   42.7835   17.0960 H           1 SKF       0.1634
     19 H5         32.7148   42.1259   17.7010 H           1 SKF       0.1634
     20 H6         30.2472   47.9107   20.1386 H           1 SKF       0.0964
     21 H7         30.3990   47.4503   21.8346 H           1 SKF       0.0964
     22 H8         28.1681   46.3407   22.8317 H           1 SKF       0.0836
     23 H9         26.6906   46.6598   21.9148 H           1 SKF       0.0836
     24 H10        27.6039   44.2530   21.8056 H           1 SKF       0.0463
     25 H11        27.2006   45.0022   20.2573 H           1 SKF       0.0463
     26 H12        28.0206   47.5037   20.1304 H           1 SKF       0.2028
     27 H13        28.3037   48.3503   21.5252 H           1 SKF       0.2028
@<TRIPOS>BOND
     1     1     2  ar
     2     1     7  ar
     3     2     3  ar
     4     3     4  ar
     5     3     5   1
     6     4     6  ar
     7     5     8   2
     8     5     9   2
     9     5    10  am
    10     6     7  ar
    11     6    11   1
    12     7    13   1
    13    11    14   1
    14    13    12   1
    15    12    14   1
    16     1    15   1
    17     2    16   1
    18     4    17   1
    19    10    18   1
    20    10    19   1
    21    11    20   1
    22    11    21   1
    23    12    22   1
    24    12    23   1
    25    13    24   1
    26    13    25   1
    27    14    26   1
    28    14    27   1
@<TRIPOS>SUBSTRUCTURE
     1  SKF      1

