@<TRIPOS>MOLECULE
1hnn_ligand_017
    27    28
SMALL
GAST_HUCK
****
This file was generated by PARSER (from files_GN.cpp)

@<TRIPOS>ATOM
      1 C4         28.7928   45.5266   14.8096 C.ar        1 SKF      -0.0647
      2 C5         28.6750   45.4129   13.4164 C.ar        1 SKF      -0.0489
      3 C6         28.1825   44.2286   12.8329 C.ar        1 SKF       0.0945
      4 C7         27.8075   43.1576   13.6709 C.ar        1 SKF      -0.0353
      5 S          28.0340   44.0780   11.1006 S.o2        1 SKF       0.0613
      6 C8         27.8992   43.2676   15.0745 C.ar        1 SKF       0.0053
      7 C9         28.4282   44.4523   15.6551 C.ar        1 SKF      -0.0308
      8 O1         29.4215   44.2709   10.3482 O.2         1 SKF      -0.1515
      9 O2         27.0866   45.2410   10.5725 O.2         1 SKF      -0.1515
     10 N          27.3117   42.6460   10.6104 N.am        1 SKF      -0.2618
     11 C1         27.4580   42.1324   15.9282 C.3         1 SKF      -0.0020
     12 C2         28.4513   43.2507   17.8959 C.3         1 SKF      -0.0238
     13 C3         28.5848   44.5947   17.1279 C.3         1 SKF       0.0189
     14 N1         27.3210   42.4709   17.3604 N.4         1 SKF       0.2394
     15 H1         29.1607   46.3971   15.2061 H           1 SKF       0.0538
     16 H2         28.9564   46.1956   12.8218 H           1 SKF       0.0561
     17 H3         27.4518   42.2903   13.2631 H           1 SKF       0.0558
     18 H4         26.6083   42.6653    9.9523 H           1 SKF       0.1634
     19 H5         27.6687   41.8001   10.9248 H           1 SKF       0.1634
     20 H6         28.1689   41.3083   15.8168 H           1 SKF       0.0964
     21 H7         26.4777   41.7859   15.5897 H           1 SKF       0.0964
     22 H8         28.2797   43.4481   18.9534 H           1 SKF       0.0836
     23 H9         29.3742   42.6724   17.7988 H           1 SKF       0.0836
     24 H10        27.8229   45.2918   17.4869 H           1 SKF       0.0463
     25 H11        29.5670   45.0181   17.3572 H           1 SKF       0.0463
     26 H12        27.2286   41.6043   17.8966 H           1 SKF       0.2028
     27 H13        26.4675   43.0159   17.4805 H           1 SKF       0.2028
@<TRIPOS>BOND
     1     1     2  ar
     2     1     7  ar
     3     2     3  ar
     4     3     4  ar
     5     3     5   1
     6     4     6  ar
     7     5     8   2
     8     5     9   2
     9     5    10  am
    10     6     7  ar
    11     6    11   1
    12     7    13   1
    13    11    14   1
    14    13    12   1
    15    12    14   1
    16     1    15   1
    17     2    16   1
    18     4    17   1
    19    10    18   1
    20    10    19   1
    21    11    20   1
    22    11    21   1
    23    12    22   1
    24    12    23   1
    25    13    24   1
    26    13    25   1
    27    14    26   1
    28    14    27   1
@<TRIPOS>SUBSTRUCTURE
     1  SKF      1

