@<TRIPOS>MOLECULE
1igj_ligand_043
    81    86
SMALL
GAST_HUCK
****
This file was generated by PARSER (from files_GN.cpp)

@<TRIPOS>ATOM
      1 C1         -9.8823   30.0888   27.1574 C.3         1 DGX      -0.0448
      2 C2        -10.9391   31.1652   26.7947 C.3         1 DGX      -0.0260
      3 C3        -11.0614   32.2522   27.8936 C.3         1 DGX       0.0620
      4 O3         -9.8764   33.0796   27.8486 O.3         1 DGX      -0.3480
      5 C4        -11.3006   31.5996   29.2824 C.3         1 DGX      -0.0232
      6 C5        -10.2874   30.4549   29.6410 C.3         1 DGX      -0.0330
      7 C6        -10.6275   29.8407   31.0337 C.3         1 DGX      -0.0493
      8 C7        -11.8827   28.9322   31.0096 C.3         1 DGX      -0.0470
      9 C8        -11.8167   27.8196   29.9125 C.3         1 DGX      -0.0079
     10 C9        -11.4480   28.4238   28.5032 C.3         1 DGX      -0.0276
     11 C10       -10.1407   29.3406   28.5232 C.3         1 DGX      -0.0258
     12 C11       -11.4323   27.3010   27.4170 C.3         1 DGX      -0.0223
     13 C12       -12.7400   26.4761   27.3962 C.3         1 DGX       0.0664
     14 O12       -12.6468   25.5160   26.3394 O.3         1 DGX      -0.3909
     15 C13       -13.1048   25.8021   28.7802 C.3         1 DGX       0.0405
     16 C14       -13.1019   26.8953   29.9122 C.3         1 DGX       0.0799
     17 O14       -13.1376   26.2329   31.1871 O.3         1 DGX      -0.3874
     18 C15       -14.4716   27.6164   29.7439 C.3         1 DGX      -0.0200
     19 C16       -15.4398   26.6094   29.0811 C.3         1 DGX      -0.0318
     20 C17       -14.6139   25.3372   28.7277 C.3         1 DGX       0.0177
     21 C18       -12.0908   24.6333   29.0718 C.3         1 DGX      -0.0516
     22 C19        -8.8422   28.4839   28.7834 C.3         1 DGX      -0.0590
     23 C20       -14.9970   24.1517   29.5129 C.2         1 DGX      -0.0063
     24 C21       -15.1281   22.8220   28.9457 C.3         1 DGX       0.1204
     25 O21       -15.5645   22.0483   30.0630 O.3         1 DGX      -0.2665
     26 C22       -15.3125   24.1078   30.8111 C.2         1 DGX       0.0017
     27 C23       -15.6652   22.8466   31.1460 C.2         1 DGX       0.2187
     28 O23       -16.0985   22.4606   32.3643 O.2         1 DGX      -0.3870
     29 C1X        -9.8218   34.3547   28.5257 C.3         1 DGX       0.1624
     30 C2X        -9.0322   35.3152   27.5991 C.3         1 DGX       0.0270
     31 C3X        -9.0283   36.7747   28.1220 C.3         1 DGX       0.0881
     32 O3X        -8.1578   36.8880   29.2474 O.3         1 DGX      -0.3890
     33 C4X       -10.4658   37.2365   28.4850 C.3         1 DGX       0.1070
     34 O4X       -10.4289   38.5416   29.0697 O.3         1 DGX      -0.3867
     35 C5X       -11.1397   36.2068   29.4421 C.3         1 DGX       0.0871
     36 O5X       -11.1300   34.8973   28.8268 O.3         1 DGX      -0.3456
     37 C6X       -12.6127   36.5666   29.7519 C.3         1 DGX      -0.0361
     38 H1         -9.8096   29.3838   26.3277 H           1 DGX       0.0271
     39 H2         -8.9125   30.5948   27.1985 H           1 DGX       0.0271
     40 H3        -11.9070   30.6892   26.6321 H           1 DGX       0.0290
     41 H4        -10.6554   31.6375   25.8516 H           1 DGX       0.0290
     42 H5        -11.9328   32.8624   27.6396 H           1 DGX       0.0597
     43 H6        -12.3214   31.2148   29.2963 H           1 DGX       0.0293
     44 H7        -11.2455   32.3752   30.0490 H           1 DGX       0.0293
     45 H8         -9.3156   30.9505   29.7529 H           1 DGX       0.0307
     46 H9        -10.7827   30.6392   31.7654 H           1 DGX       0.0268
     47 H10        -9.7768   29.2544   31.3924 H           1 DGX       0.0268
     48 H11       -12.7699   29.5512   30.8650 H           1 DGX       0.0269
     49 H12       -11.9714   28.4743   31.9977 H           1 DGX       0.0269
     50 H13       -10.9937   27.1648   30.2077 H           1 DGX       0.0332
     51 H14       -12.2812   29.0722   28.2310 H           1 DGX       0.0310
     52 H15       -10.5882   26.6284   27.5648 H           1 DGX       0.0293
     53 H16       -11.3284   27.7466   26.4265 H           1 DGX       0.0293
     54 H17       -13.5320   27.1719   27.1039 H           1 DGX       0.0602
     55 H18       -13.3868   25.7187   25.7270 H           1 DGX       0.2098
     56 H19       -13.3090   26.9269   31.8578 H           1 DGX       0.2102
     57 H20       -14.3745   28.4976   29.1052 H           1 DGX       0.0295
     58 H21       -14.8712   27.9546   30.7058 H           1 DGX       0.0295
     59 H22       -15.8421   27.0519   28.1642 H           1 DGX       0.0301
     60 H23       -16.2877   26.3964   29.7393 H           1 DGX       0.0301
     61 H24       -14.8622   25.0806   27.6897 H           1 DGX       0.0550
     62 H25       -12.0824   23.9100   28.2572 H           1 DGX       0.0239
     63 H26       -12.3475   24.0964   29.9830 H           1 DGX       0.0239
     64 H27       -11.0752   25.0066   29.1981 H           1 DGX       0.0239
     65 H28        -7.9717   29.1280   28.9142 H           1 DGX       0.0235
     66 H29        -8.6268   27.8231   27.9433 H           1 DGX       0.0235
     67 H30        -8.9198   27.8656   29.6738 H           1 DGX       0.0235
     68 H31       -14.1688   22.4565   28.5680 H           1 DGX       0.0859
     69 H32       -15.8769   22.8007   28.1508 H           1 DGX       0.0859
     70 H33       -15.3468   24.8791   31.4315 H           1 DGX       0.0295
     71 H34        -9.2696   34.2014   29.4598 H           1 DGX       0.0910
     72 H35        -9.4940   35.3043   26.6085 H           1 DGX       0.0340
     73 H36        -8.0032   34.9689   27.4893 H           1 DGX       0.0340
     74 H37        -8.6327   37.4258   27.3398 H           1 DGX       0.0621
     75 H38        -8.1348   37.8447   29.4641 H           1 DGX       0.2099
     76 H39       -11.0569   37.3037   27.5645 H           1 DGX       0.0645
     77 H40       -10.0309   39.1172   28.3818 H           1 DGX       0.2100
     78 H41       -10.5954   36.1776   30.3948 H           1 DGX       0.0621
     79 H42       -13.0357   35.8299   30.4365 H           1 DGX       0.0255
     80 H43       -13.2061   36.5708   28.8363 H           1 DGX       0.0255
     81 H44       -12.6811   37.5497   30.2217 H           1 DGX       0.0255
@<TRIPOS>BOND
     1    11     1   1
     2     1     2   1
     3     2     3   1
     4     3     5   1
     5     3     4   1
     6     4    29   1
     7    29    36   1
     8    29    30   1
     9    30    31   1
    10    31    33   1
    11    31    32   1
    12    33    35   1
    13    33    34   1
    14    35    37   1
    15    36    35   1
    16     5     6   1
    17    11     6   1
    18     6     7   1
    19     7     8   1
    20     8     9   1
    21     9    16   1
    22     9    10   1
    23    10    12   1
    24    10    11   1
    25    11    22   1
    26    12    13   1
    27    13    15   1
    28    13    14   1
    29    15    21   1
    30    15    20   1
    31    15    16   1
    32    16    18   1
    33    16    17   1
    34    18    19   1
    35    20    19   1
    36    20    23   1
    37    23    26   2
    38    23    24   1
    39    24    25   1
    40    25    27   1
    41    27    28   2
    42    27    26   1
    43     1    38   1
    44     1    39   1
    45     2    40   1
    46     2    41   1
    47     3    42   1
    48     5    43   1
    49     5    44   1
    50     6    45   1
    51     7    46   1
    52     7    47   1
    53     8    48   1
    54     8    49   1
    55     9    50   1
    56    10    51   1
    57    12    52   1
    58    12    53   1
    59    13    54   1
    60    14    55   1
    61    17    56   1
    62    18    57   1
    63    18    58   1
    64    19    59   1
    65    19    60   1
    66    20    61   1
    67    21    62   1
    68    21    63   1
    69    21    64   1
    70    22    65   1
    71    22    66   1
    72    22    67   1
    73    24    68   1
    74    24    69   1
    75    26    70   1
    76    29    71   1
    77    30    72   1
    78    30    73   1
    79    31    74   1
    80    32    75   1
    81    33    76   1
    82    34    77   1
    83    35    78   1
    84    37    79   1
    85    37    80   1
    86    37    81   1
@<TRIPOS>SUBSTRUCTURE
     1  DGX      1

