@<TRIPOS>MOLECULE
1igj_ligand_084
    81    86
SMALL
GAST_HUCK
****
This file was generated by PARSER (from files_GN.cpp)

@<TRIPOS>ATOM
      1 C1        -14.1644   31.3276   27.3052 C.3         1 DGX      -0.0448
      2 C2        -12.6935   31.6021   27.7136 C.3         1 DGX      -0.0260
      3 C3        -11.6770   31.0795   26.6611 C.3         1 DGX       0.0620
      4 O3        -11.7138   31.9627   25.5096 O.3         1 DGX      -0.3480
      5 C4        -11.9669   29.5875   26.3547 C.3         1 DGX      -0.0232
      6 C5        -13.4507   29.3129   25.9311 C.3         1 DGX      -0.0330
      7 C6        -13.6487   27.8139   25.5550 C.3         1 DGX      -0.0493
      8 C7        -13.6365   26.8887   26.7837 C.3         1 DGX      -0.0470
      9 C8        -14.6347   27.3323   27.9023 C.3         1 DGX      -0.0079
     10 C9        -14.4845   28.8578   28.2625 C.3         1 DGX      -0.0276
     11 C10       -14.5172   29.8159   26.9918 C.3         1 DGX      -0.0258
     12 C11       -15.4996   29.2288   29.3919 C.3         1 DGX      -0.0223
     13 C12       -15.3811   28.3069   30.6341 C.3         1 DGX       0.0664
     14 O12       -16.3091   28.7488   31.6298 O.3         1 DGX      -0.3909
     15 C13       -15.5642   26.7669   30.3243 C.3         1 DGX       0.0405
     16 C14       -14.6084   26.3542   29.1447 C.3         1 DGX       0.0799
     17 O14       -14.9886   25.0650   28.6522 O.3         1 DGX      -0.3874
     18 C15       -13.2232   26.1662   29.8294 C.3         1 DGX      -0.0200
     19 C16       -13.4950   25.7701   31.2967 C.3         1 DGX      -0.0318
     20 C17       -15.0270   25.9261   31.5558 C.3         1 DGX       0.0177
     21 C18       -17.0744   26.4864   29.9973 C.3         1 DGX      -0.0516
     22 C19       -15.9569   29.8501   26.3401 C.3         1 DGX      -0.0590
     23 C20       -15.6906   24.6429   31.8584 C.2         1 DGX      -0.0063
     24 C21       -15.8515   23.5503   30.9277 C.3         1 DGX       0.1204
     25 O21       -16.5220   22.5651   31.6966 O.3         1 DGX      -0.2665
     26 C22       -16.2399   24.2920   33.0329 C.2         1 DGX       0.0017
     27 C23       -16.7319   23.0346   32.9408 C.2         1 DGX       0.2187
     28 O23       -17.3409   22.3466   33.9313 O.2         1 DGX      -0.3870
     29 C1X       -10.9547   31.6999   24.3090 C.3         1 DGX       0.1624
     30 C2X        -9.4354   31.4250   24.5211 C.3         1 DGX       0.0270
     31 C3X        -8.7379   31.0788   23.1792 C.3         1 DGX       0.0881
     32 O3X        -8.6544   32.2359   22.3448 O.3         1 DGX      -0.3890
     33 C4X        -9.5000   29.9369   22.4465 C.3         1 DGX       0.1070
     34 O4X        -8.9000   29.6728   21.1805 O.3         1 DGX      -0.3867
     35 C5X       -11.0053   30.3117   22.2937 C.3         1 DGX       0.0871
     36 O5X       -11.5832   30.6304   23.5703 O.3         1 DGX      -0.3456
     37 C6X       -11.8541   29.1800   21.6675 C.3         1 DGX      -0.0361
     38 H1        -14.8247   31.7248   28.0734 H           1 DGX       0.0271
     39 H2        -14.3531   31.9404   26.4116 H           1 DGX       0.0271
     40 H3        -12.5003   31.1368   28.6819 H           1 DGX       0.0290
     41 H4        -12.5549   32.6804   27.8361 H           1 DGX       0.0290
     42 H5        -10.6792   31.1503   27.1076 H           1 DGX       0.0597
     43 H6        -11.7212   29.0069   27.2372 H           1 DGX       0.0293
     44 H7        -11.2846   29.2442   25.5732 H           1 DGX       0.0293
     45 H8        -13.6045   29.8809   25.0000 H           1 DGX       0.0307
     46 H9        -12.8631   27.5009   24.8572 H           1 DGX       0.0268
     47 H10       -14.5989   27.6888   25.0231 H           1 DGX       0.0268
     48 H11       -12.6208   26.8473   27.1824 H           1 DGX       0.0269
     49 H12       -13.8886   25.8852   26.4339 H           1 DGX       0.0269
     50 H13       -15.6292   27.2071   27.4713 H           1 DGX       0.0332
     51 H14       -13.5000   28.9731   28.7146 H           1 DGX       0.0310
     52 H15       -16.5210   29.1840   29.0144 H           1 DGX       0.0293
     53 H16       -15.3187   30.2508   29.7279 H           1 DGX       0.0293
     54 H17       -14.3881   28.4806   31.0621 H           1 DGX       0.0602
     55 H18       -15.9687   29.6152   31.9378 H           1 DGX       0.2098
     56 H19       -15.4703   25.2193   27.8177 H           1 DGX       0.2102
     57 H20       -12.6502   27.0965   29.8102 H           1 DGX       0.0295
     58 H21       -12.6243   25.4031   29.3228 H           1 DGX       0.0295
     59 H22       -12.9354   26.4401   31.9607 H           1 DGX       0.0301
     60 H23       -13.1345   24.7572   31.4876 H           1 DGX       0.0301
     61 H24       -15.1351   26.5291   32.4574 H           1 DGX       0.0550
     62 H25       -17.7134   26.7559   30.8348 H           1 DGX       0.0239
     63 H26       -17.2988   25.5192   29.7688 H           1 DGX       0.0239
     64 H27       -17.4026   27.0330   29.1226 H           1 DGX       0.0239
     65 H28       -15.9457   30.3963   25.3881 H           1 DGX       0.0235
     66 H29       -16.6672   30.3536   26.9877 H           1 DGX       0.0235
     67 H30       -16.3405   28.8563   26.1296 H           1 DGX       0.0235
     68 H31       -14.8951   23.1783   30.5710 H           1 DGX       0.0859
     69 H32       -16.4394   23.7498   30.0936 H           1 DGX       0.0859
     70 H33       -16.3065   24.8543   33.8455 H           1 DGX       0.0295
     71 H34       -11.0520   32.6112   23.7165 H           1 DGX       0.0910
     72 H35        -9.3035   30.5852   25.2076 H           1 DGX       0.0340
     73 H36        -8.9612   32.3016   24.9690 H           1 DGX       0.0340
     74 H37        -7.7143   30.7501   23.3812 H           1 DGX       0.0621
     75 H38        -8.2793   32.9404   22.9149 H           1 DGX       0.2099
     76 H39        -9.4149   29.0248   23.0457 H           1 DGX       0.0645
     77 H40        -9.6005   29.8613   20.5236 H           1 DGX       0.2100
     78 H41       -11.0879   31.1818   21.6368 H           1 DGX       0.0621
     79 H42       -12.8874   29.5152   21.5697 H           1 DGX       0.0255
     80 H43       -11.8382   28.2905   22.2982 H           1 DGX       0.0255
     81 H44       -11.4842   28.9182   20.6780 H           1 DGX       0.0255
@<TRIPOS>BOND
     1    11     1   1
     2     1     2   1
     3     2     3   1
     4     3     5   1
     5     3     4   1
     6     4    29   1
     7    29    36   1
     8    29    30   1
     9    30    31   1
    10    31    33   1
    11    31    32   1
    12    33    35   1
    13    33    34   1
    14    35    37   1
    15    36    35   1
    16     5     6   1
    17    11     6   1
    18     6     7   1
    19     7     8   1
    20     8     9   1
    21     9    16   1
    22     9    10   1
    23    10    12   1
    24    10    11   1
    25    11    22   1
    26    12    13   1
    27    13    15   1
    28    13    14   1
    29    15    21   1
    30    15    20   1
    31    15    16   1
    32    16    18   1
    33    16    17   1
    34    18    19   1
    35    20    19   1
    36    20    23   1
    37    23    26   2
    38    23    24   1
    39    24    25   1
    40    25    27   1
    41    27    28   2
    42    27    26   1
    43     1    38   1
    44     1    39   1
    45     2    40   1
    46     2    41   1
    47     3    42   1
    48     5    43   1
    49     5    44   1
    50     6    45   1
    51     7    46   1
    52     7    47   1
    53     8    48   1
    54     8    49   1
    55     9    50   1
    56    10    51   1
    57    12    52   1
    58    12    53   1
    59    13    54   1
    60    14    55   1
    61    17    56   1
    62    18    57   1
    63    18    58   1
    64    19    59   1
    65    19    60   1
    66    20    61   1
    67    21    62   1
    68    21    63   1
    69    21    64   1
    70    22    65   1
    71    22    66   1
    72    22    67   1
    73    24    68   1
    74    24    69   1
    75    26    70   1
    76    29    71   1
    77    30    72   1
    78    30    73   1
    79    31    74   1
    80    32    75   1
    81    33    76   1
    82    34    77   1
    83    35    78   1
    84    37    79   1
    85    37    80   1
    86    37    81   1
@<TRIPOS>SUBSTRUCTURE
     1  DGX      1

