@<TRIPOS>MOLECULE
1igj_ligand_058
    81    86
SMALL
GAST_HUCK
****
This file was generated by PARSER (from files_GN.cpp)

@<TRIPOS>ATOM
      1 C1        -11.3357   26.2343   27.8399 C.3         1 DGX      -0.0448
      2 C2        -10.2958   25.2546   28.4363 C.3         1 DGX      -0.0260
      3 C3        -10.3114   23.8625   27.7519 C.3         1 DGX       0.0620
      4 O3         -9.8032   23.9135   26.3917 O.3         1 DGX      -0.3480
      5 C4        -11.7501   23.2957   27.6977 C.3         1 DGX      -0.0232
      6 C5        -12.7654   24.2957   27.0419 C.3         1 DGX      -0.0330
      7 C6        -14.1711   23.6455   26.9115 C.3         1 DGX      -0.0493
      8 C7        -14.8752   23.4743   28.2795 C.3         1 DGX      -0.0470
      9 C8        -14.9481   24.8032   29.0992 C.3         1 DGX      -0.0079
     10 C9        -13.5370   25.5127   29.1887 C.3         1 DGX      -0.0276
     11 C10       -12.8240   25.7002   27.7704 C.3         1 DGX      -0.0258
     12 C11       -13.6608   26.8183   30.0299 C.3         1 DGX      -0.0223
     13 C12       -14.3058   26.5795   31.4226 C.3         1 DGX       0.0664
     14 O12       -14.3144   27.8198   32.1365 O.3         1 DGX      -0.3909
     15 C13       -15.7389   25.9048   31.3802 C.3         1 DGX       0.0405
     16 C14       -15.6857   24.6112   30.4857 C.3         1 DGX       0.0799
     17 O14       -17.0325   24.2067   30.1937 O.3         1 DGX      -0.3874
     18 C15       -15.0919   23.5213   31.4277 C.3         1 DGX      -0.0200
     19 C16       -15.4930   23.8990   32.8704 C.3         1 DGX      -0.0318
     20 C17       -16.1009   25.3353   32.8151 C.3         1 DGX       0.0177
     21 C18       -16.7728   26.9697   30.8546 C.3         1 DGX      -0.0516
     22 C19       -13.5853   26.7541   26.8745 C.3         1 DGX      -0.0590
     23 C20       -17.5132   25.3759   33.2430 C.2         1 DGX      -0.0063
     24 C21       -18.0187   26.3428   34.1985 C.3         1 DGX       0.1204
     25 O21       -19.4019   26.0102   34.2797 O.3         1 DGX      -0.2665
     26 C22       -18.5202   24.5833   32.8515 C.2         1 DGX       0.0017
     27 C23       -19.6586   24.9613   33.4758 C.2         1 DGX       0.2187
     28 O23       -20.8728   24.3876   33.3279 O.2         1 DGX      -0.3870
     29 C1X        -8.6734   23.0770   26.0664 C.3         1 DGX       0.1624
     30 C2X        -8.9622   21.5495   26.1688 C.3         1 DGX       0.0270
     31 C3X        -7.6654   20.7677   25.8514 C.3         1 DGX       0.0881
     32 O3X        -6.6627   21.0506   26.8242 O.3         1 DGX      -0.3890
     33 C4X        -7.1712   21.1516   24.4389 C.3         1 DGX       0.1070
     34 O4X        -5.9507   20.4758   24.1315 O.3         1 DGX      -0.3867
     35 C5X        -7.0462   22.6978   24.2730 C.3         1 DGX       0.0871
     36 O5X        -8.2539   23.3745   24.7141 O.3         1 DGX      -0.3456
     37 C6X        -6.7762   23.0750   22.7971 C.3         1 DGX      -0.0361
     38 H1        -11.2836   27.1730   28.3953 H           1 DGX       0.0271
     39 H2        -10.9884   26.4644   26.8277 H           1 DGX       0.0271
     40 H3        -10.4906   25.1393   29.5055 H           1 DGX       0.0290
     41 H4         -9.2946   25.6839   28.3323 H           1 DGX       0.0290
     42 H5         -9.7046   23.2065   28.3872 H           1 DGX       0.0597
     43 H6        -12.0518   23.0375   28.7135 H           1 DGX       0.0293
     44 H7        -11.7355   22.3636   27.1275 H           1 DGX       0.0293
     45 H8        -12.4156   24.4562   26.0160 H           1 DGX       0.0307
     46 H9        -14.0890   22.6735   26.4195 H           1 DGX       0.0268
     47 H10       -14.7907   24.2676   26.2630 H           1 DGX       0.0268
     48 H11       -14.3558   22.7064   28.8549 H           1 DGX       0.0269
     49 H12       -15.8814   23.0954   28.0847 H           1 DGX       0.0269
     50 H13       -15.5943   25.4698   28.5238 H           1 DGX       0.0332
     51 H14       -12.8993   24.8583   29.7835 H           1 DGX       0.0310
     52 H15       -14.2385   27.5649   29.4855 H           1 DGX       0.0293
     53 H16       -12.6677   27.2360   30.2012 H           1 DGX       0.0293
     54 H17       -13.6249   25.9313   31.9781 H           1 DGX       0.0602
     55 H18       -13.3801   27.9885   32.3836 H           1 DGX       0.2098
     56 H19       -16.9912   23.2700   29.9116 H           1 DGX       0.2102
     57 H20       -14.0042   23.4962   31.3545 H           1 DGX       0.0295
     58 H21       -15.4600   22.5224   31.1754 H           1 DGX       0.0295
     59 H22       -14.6081   23.8787   33.5133 H           1 DGX       0.0301
     60 H23       -16.1863   23.1560   33.2769 H           1 DGX       0.0301
     61 H24       -15.5638   25.9356   33.5595 H           1 DGX       0.0550
     62 H25       -16.7971   27.8375   31.5149 H           1 DGX       0.0239
     63 H26       -17.7831   26.5649   30.8097 H           1 DGX       0.0239
     64 H27       -16.5212   27.3167   29.8537 H           1 DGX       0.0239
     65 H28       -13.1908   26.7548   25.8565 H           1 DGX       0.0235
     66 H29       -13.4672   27.7668   27.2658 H           1 DGX       0.0235
     67 H30       -14.6528   26.5592   26.8004 H           1 DGX       0.0235
     68 H31       -17.8904   27.3654   33.8377 H           1 DGX       0.0859
     69 H32       -17.5498   26.2282   35.1784 H           1 DGX       0.0859
     70 H33       -18.4610   23.8118   32.2318 H           1 DGX       0.0295
     71 H34        -7.8649   23.3541   26.7454 H           1 DGX       0.0910
     72 H35        -9.7445   21.2767   25.4537 H           1 DGX       0.0340
     73 H36        -9.3024   21.2649   27.1647 H           1 DGX       0.0340
     74 H37        -7.8726   19.6969   25.8892 H           1 DGX       0.0621
     75 H38        -7.1619   21.2085   27.6515 H           1 DGX       0.2099
     76 H39        -7.9340   20.7932   23.7451 H           1 DGX       0.0645
     77 H40        -5.2263   21.1261   24.2477 H           1 DGX       0.2100
     78 H41        -6.2001   23.0610   24.8660 H           1 DGX       0.0621
     79 H42        -6.8059   24.1580   22.6740 H           1 DGX       0.0255
     80 H43        -7.5316   22.6309   22.1464 H           1 DGX       0.0255
     81 H44        -5.7930   22.7211   22.4819 H           1 DGX       0.0255
@<TRIPOS>BOND
     1    11     1   1
     2     1     2   1
     3     2     3   1
     4     3     5   1
     5     3     4   1
     6     4    29   1
     7    29    36   1
     8    29    30   1
     9    30    31   1
    10    31    33   1
    11    31    32   1
    12    33    35   1
    13    33    34   1
    14    35    37   1
    15    36    35   1
    16     5     6   1
    17    11     6   1
    18     6     7   1
    19     7     8   1
    20     8     9   1
    21     9    16   1
    22     9    10   1
    23    10    12   1
    24    10    11   1
    25    11    22   1
    26    12    13   1
    27    13    15   1
    28    13    14   1
    29    15    21   1
    30    15    20   1
    31    15    16   1
    32    16    18   1
    33    16    17   1
    34    18    19   1
    35    20    19   1
    36    20    23   1
    37    23    26   2
    38    23    24   1
    39    24    25   1
    40    25    27   1
    41    27    28   2
    42    27    26   1
    43     1    38   1
    44     1    39   1
    45     2    40   1
    46     2    41   1
    47     3    42   1
    48     5    43   1
    49     5    44   1
    50     6    45   1
    51     7    46   1
    52     7    47   1
    53     8    48   1
    54     8    49   1
    55     9    50   1
    56    10    51   1
    57    12    52   1
    58    12    53   1
    59    13    54   1
    60    14    55   1
    61    17    56   1
    62    18    57   1
    63    18    58   1
    64    19    59   1
    65    19    60   1
    66    20    61   1
    67    21    62   1
    68    21    63   1
    69    21    64   1
    70    22    65   1
    71    22    66   1
    72    22    67   1
    73    24    68   1
    74    24    69   1
    75    26    70   1
    76    29    71   1
    77    30    72   1
    78    30    73   1
    79    31    74   1
    80    32    75   1
    81    33    76   1
    82    34    77   1
    83    35    78   1
    84    37    79   1
    85    37    80   1
    86    37    81   1
@<TRIPOS>SUBSTRUCTURE
     1  DGX      1

