@<TRIPOS>MOLECULE
1igj_ligand_061
    81    86
SMALL
GAST_HUCK
****
This file was generated by PARSER (from files_GN.cpp)

@<TRIPOS>ATOM
      1 C1        -12.5432   26.2408   28.8089 C.3         1 DGX      -0.0448
      2 C2        -12.4266   25.9192   30.3199 C.3         1 DGX      -0.0260
      3 C3        -13.8133   25.8325   31.0109 C.3         1 DGX       0.0620
      4 O3        -14.4814   24.6259   30.5769 O.3         1 DGX      -0.3480
      5 C4        -14.5904   27.1519   30.7411 C.3         1 DGX      -0.0232
      6 C5        -14.7446   27.4650   29.2127 C.3         1 DGX      -0.0330
      7 C6        -15.6225   28.7338   29.0035 C.3         1 DGX      -0.0493
      8 C7        -14.8890   30.0321   29.4056 C.3         1 DGX      -0.0470
      9 C8        -13.5084   30.1990   28.6965 C.3         1 DGX      -0.0079
     10 C9        -12.6150   28.9028   28.8252 C.3         1 DGX      -0.0276
     11 C10       -13.3618   27.5451   28.4424 C.3         1 DGX      -0.0258
     12 C11       -11.2691   29.1570   28.0706 C.3         1 DGX      -0.0223
     13 C12       -10.5354   30.4246   28.5781 C.3         1 DGX       0.0664
     14 O12        -9.2842   30.5394   27.8950 O.3         1 DGX      -0.3909
     15 C13       -11.3707   31.7663   28.4727 C.3         1 DGX       0.0405
     16 C14       -12.7902   31.5427   29.1182 C.3         1 DGX       0.0799
     17 O14       -13.6757   32.6086   28.7341 O.3         1 DGX      -0.3874
     18 C15       -12.5365   31.7110   30.6413 C.3         1 DGX      -0.0200
     19 C16       -11.4062   32.7507   30.7801 C.3         1 DGX      -0.0318
     20 C17       -10.6994   32.8694   29.3933 C.3         1 DGX       0.0177
     21 C18       -11.4900   32.1806   26.9604 C.3         1 DGX      -0.0516
     22 C19       -13.6185   27.4472   26.8947 C.3         1 DGX      -0.0590
     23 C20       -10.5703   34.2430   28.8646 C.2         1 DGX      -0.0063
     24 C21        -9.3867   34.7205   28.1713 C.3         1 DGX       0.1204
     25 O21        -9.6859   36.0916   27.9199 O.3         1 DGX      -0.2665
     26 C22       -11.4503   35.2520   28.9427 C.2         1 DGX       0.0017
     27 C23       -10.9152   36.3668   28.3911 C.2         1 DGX       0.2187
     28 O23       -11.4923   37.5886   28.3548 O.2         1 DGX      -0.3870
     29 C1X       -15.8464   24.4138   30.9818 C.3         1 DGX       0.1624
     30 C2X       -16.2818   22.9650   30.6456 C.3         1 DGX       0.0270
     31 C3X       -17.7571   22.7354   31.0763 C.3         1 DGX       0.0881
     32 O3X       -18.6207   23.4944   30.2286 O.3         1 DGX      -0.3890
     33 C4X       -17.9677   23.1179   32.5704 C.3         1 DGX       0.1070
     34 O4X       -19.3478   23.0385   32.9210 O.3         1 DGX      -0.3867
     35 C5X       -17.4000   24.5396   32.8638 C.3         1 DGX       0.0871
     36 O5X       -16.0287   24.6400   32.4015 O.3         1 DGX      -0.3456
     37 C6X       -17.4235   24.8954   34.3682 C.3         1 DGX      -0.0361
     38 H1        -11.5390   26.2829   28.3882 H           1 DGX       0.0271
     39 H2        -13.0221   25.3701   28.3506 H           1 DGX       0.0271
     40 H3        -11.8076   26.6752   30.8129 H           1 DGX       0.0290
     41 H4        -11.9123   24.9620   30.4318 H           1 DGX       0.0290
     42 H5        -13.6465   25.7565   32.0846 H           1 DGX       0.0597
     43 H6        -14.0583   27.9656   31.2475 H           1 DGX       0.0293
     44 H7        -15.5778   27.1021   31.2105 H           1 DGX       0.0293
     45 H8        -15.3204   26.6318   28.7975 H           1 DGX       0.0307
     46 H9        -16.5416   28.6488   29.5886 H           1 DGX       0.0268
     47 H10       -15.9287   28.8019   27.9576 H           1 DGX       0.0268
     48 H11       -14.7565   30.0469   30.4869 H           1 DGX       0.0269
     49 H12       -15.5365   30.8721   29.1485 H           1 DGX       0.0269
     50 H13       -13.7392   30.3105   27.6361 H           1 DGX       0.0332
     51 H14       -12.3460   28.8126   29.8775 H           1 DGX       0.0310
     52 H15       -11.4450   29.2499   26.9982 H           1 DGX       0.0293
     53 H16       -10.5954   28.3121   28.2161 H           1 DGX       0.0293
     54 H17       -10.2799   30.2400   29.6254 H           1 DGX       0.0602
     55 H18        -8.7969   29.7125   28.0882 H           1 DGX       0.2098
     56 H19       -13.2658   33.4393   29.0512 H           1 DGX       0.2102
     57 H20       -12.2148   30.7715   31.0927 H           1 DGX       0.0295
     58 H21       -13.4360   32.0425   31.1704 H           1 DGX       0.0295
     59 H22       -10.7021   32.4236   31.5513 H           1 DGX       0.0301
     60 H23       -11.8237   33.6989   31.1263 H           1 DGX       0.0301
     61 H24        -9.6614   32.5717   29.5767 H           1 DGX       0.0550
     62 H25       -10.5067   32.3041   26.5075 H           1 DGX       0.0239
     63 H26       -12.0325   33.1204   26.8406 H           1 DGX       0.0239
     64 H27       -12.0147   31.4265   26.3794 H           1 DGX       0.0239
     65 H28       -14.2438   26.5862   26.6463 H           1 DGX       0.0235
     66 H29       -12.6846   27.3355   26.3428 H           1 DGX       0.0235
     67 H30       -14.1236   28.3286   26.5144 H           1 DGX       0.0235
     68 H31        -9.2240   34.2003   27.2261 H           1 DGX       0.0859
     69 H32        -8.4974   34.6389   28.7989 H           1 DGX       0.0859
     70 H33       -12.3366   35.2286   29.3795 H           1 DGX       0.0295
     71 H34       -16.4777   25.0949   30.4103 H           1 DGX       0.0910
     72 H35       -15.6312   22.2593   31.1755 H           1 DGX       0.0340
     73 H36       -16.1755   22.7876   29.5717 H           1 DGX       0.0340
     74 H37       -17.9995   21.6801   30.9343 H           1 DGX       0.0621
     75 H38       -19.5332   23.2704   30.5115 H           1 DGX       0.2099
     76 H39       -17.4327   22.3889   33.1860 H           1 DGX       0.0645
     77 H40       -19.7911   23.7535   32.4175 H           1 DGX       0.2100
     78 H41       -18.0063   25.2865   32.3421 H           1 DGX       0.0621
     79 H42       -16.9987   25.8895   34.5189 H           1 DGX       0.0255
     80 H43       -16.8356   24.1751   34.9406 H           1 DGX       0.0255
     81 H44       -18.4467   24.8971   34.7421 H           1 DGX       0.0255
@<TRIPOS>BOND
     1    11     1   1
     2     1     2   1
     3     2     3   1
     4     3     5   1
     5     3     4   1
     6     4    29   1
     7    29    36   1
     8    29    30   1
     9    30    31   1
    10    31    33   1
    11    31    32   1
    12    33    35   1
    13    33    34   1
    14    35    37   1
    15    36    35   1
    16     5     6   1
    17    11     6   1
    18     6     7   1
    19     7     8   1
    20     8     9   1
    21     9    16   1
    22     9    10   1
    23    10    12   1
    24    10    11   1
    25    11    22   1
    26    12    13   1
    27    13    15   1
    28    13    14   1
    29    15    21   1
    30    15    20   1
    31    15    16   1
    32    16    18   1
    33    16    17   1
    34    18    19   1
    35    20    19   1
    36    20    23   1
    37    23    26   2
    38    23    24   1
    39    24    25   1
    40    25    27   1
    41    27    28   2
    42    27    26   1
    43     1    38   1
    44     1    39   1
    45     2    40   1
    46     2    41   1
    47     3    42   1
    48     5    43   1
    49     5    44   1
    50     6    45   1
    51     7    46   1
    52     7    47   1
    53     8    48   1
    54     8    49   1
    55     9    50   1
    56    10    51   1
    57    12    52   1
    58    12    53   1
    59    13    54   1
    60    14    55   1
    61    17    56   1
    62    18    57   1
    63    18    58   1
    64    19    59   1
    65    19    60   1
    66    20    61   1
    67    21    62   1
    68    21    63   1
    69    21    64   1
    70    22    65   1
    71    22    66   1
    72    22    67   1
    73    24    68   1
    74    24    69   1
    75    26    70   1
    76    29    71   1
    77    30    72   1
    78    30    73   1
    79    31    74   1
    80    32    75   1
    81    33    76   1
    82    34    77   1
    83    35    78   1
    84    37    79   1
    85    37    80   1
    86    37    81   1
@<TRIPOS>SUBSTRUCTURE
     1  DGX      1

