@<TRIPOS>MOLECULE
1igj_ligand_013
    81    86
SMALL
GAST_HUCK
****
This file was generated by PARSER (from files_GN.cpp)

@<TRIPOS>ATOM
      1 C1        -14.1077   28.9596   30.7084 C.3         1 DGX      -0.0448
      2 C2        -12.6380   28.6779   31.1122 C.3         1 DGX      -0.0260
      3 C3        -12.0412   27.4876   30.3138 C.3         1 DGX       0.0620
      4 O3        -11.8640   27.8079   28.9103 O.3         1 DGX      -0.3480
      5 C4        -12.9637   26.2465   30.4284 C.3         1 DGX      -0.0232
      6 C5        -14.4650   26.5228   30.0700 C.3         1 DGX      -0.0330
      7 C6        -15.3135   25.2224   30.2123 C.3         1 DGX      -0.0493
      8 C7        -15.5784   24.8248   31.6855 C.3         1 DGX      -0.0470
      9 C8        -16.2014   25.9783   32.5365 C.3         1 DGX      -0.0079
     10 C9        -15.3648   27.3073   32.3801 C.3         1 DGX      -0.0276
     11 C10       -15.0997   27.7383   30.8633 C.3         1 DGX      -0.0258
     12 C11       -15.9978   28.4258   33.2671 C.3         1 DGX      -0.0223
     13 C12       -16.1433   27.9975   34.7489 C.3         1 DGX       0.0664
     14 O12       -16.6495   29.1197   35.4793 O.3         1 DGX      -0.3909
     15 C13       -17.0078   26.6893   34.9776 C.3         1 DGX       0.0405
     16 C14       -16.4877   25.5387   34.0308 C.3         1 DGX       0.0799
     17 O14       -17.4748   24.4900   33.9896 O.3         1 DGX      -0.3874
     18 C15       -15.2799   24.9557   34.8127 C.3         1 DGX      -0.0200
     19 C16       -15.7367   24.9356   36.2808 C.3         1 DGX      -0.0318
     20 C17       -16.7242   26.1313   36.4409 C.3         1 DGX       0.0177
     21 C18       -18.5199   27.0325   34.7018 C.3         1 DGX      -0.0516
     22 C19       -16.4319   28.1981   30.1576 C.3         1 DGX      -0.0590
     23 C20       -17.8740   25.8216   37.3073 C.2         1 DGX      -0.0063
     24 C21       -18.2768   26.6456   38.4308 C.3         1 DGX       0.1204
     25 O21       -19.4278   25.9614   38.9216 O.3         1 DGX      -0.2665
     26 C22       -18.7214   24.7945   37.1921 C.2         1 DGX       0.0017
     27 C23       -19.6589   24.8709   38.1642 C.2         1 DGX       0.2187
     28 O23       -20.6725   23.9983   38.3544 O.2         1 DGX      -0.3870
     29 C1X       -10.6548   28.4880   28.5049 C.3         1 DGX       0.1624
     30 C2X        -9.4742   27.4926   28.3211 C.3         1 DGX       0.0270
     31 C3X        -8.2322   28.2056   27.7227 C.3         1 DGX       0.0881
     32 O3X        -7.6492   29.0703   28.6989 O.3         1 DGX      -0.3890
     33 C4X        -8.5994   29.0023   26.4395 C.3         1 DGX       0.1070
     34 O4X        -7.5034   29.8156   26.0181 O.3         1 DGX      -0.3867
     35 C5X        -9.8552   29.8946   26.6747 C.3         1 DGX       0.0871
     36 O5X       -10.9428   29.1231   27.2395 O.3         1 DGX      -0.3456
     37 C6X       -10.3503   30.5508   25.3642 C.3         1 DGX      -0.0361
     38 H1        -14.4600   29.8245   31.2722 H           1 DGX       0.0271
     39 H2        -14.0865   29.2785   29.6611 H           1 DGX       0.0271
     40 H3        -12.5827   28.4728   32.1826 H           1 DGX       0.0290
     41 H4        -12.0424   29.5751   30.9274 H           1 DGX       0.0290
     42 H5        -11.0820   27.2187   30.7696 H           1 DGX       0.0597
     43 H6        -12.8909   25.8681   31.4465 H           1 DGX       0.0293
     44 H7        -12.5700   25.4662   29.7710 H           1 DGX       0.0293
     45 H8        -14.4676   26.7721   29.0023 H           1 DGX       0.0307
     46 H9        -14.8108   24.3931   29.7060 H           1 DGX       0.0268
     47 H10       -16.2721   25.3567   29.7092 H           1 DGX       0.0268
     48 H11       -14.6399   24.4955   32.1340 H           1 DGX       0.0269
     49 H12       -16.2509   23.9642   31.6774 H           1 DGX       0.0269
     50 H13       -17.1875   26.1692   32.1069 H           1 DGX       0.0332
     51 H14       -14.3894   27.1007   32.8226 H           1 DGX       0.0310
     52 H15       -16.9714   28.7210   32.8776 H           1 DGX       0.0293
     53 H16       -15.3614   29.3110   33.2547 H           1 DGX       0.0293
     54 H17       -15.1266   27.8367   35.1188 H           1 DGX       0.0602
     55 H18       -16.5124   28.9094   36.4263 H           1 DGX       0.2098
     56 H19       -17.0156   23.6826   33.6765 H           1 DGX       0.2102
     57 H20       -14.4016   25.5942   34.7115 H           1 DGX       0.0295
     58 H21       -15.0132   23.9486   34.4798 H           1 DGX       0.0295
     59 H22       -14.8767   25.0247   36.9510 H           1 DGX       0.0301
     60 H23       -16.2156   23.9731   36.4822 H           1 DGX       0.0301
     61 H24       -16.1582   26.8861   36.9953 H           1 DGX       0.0550
     62 H25       -18.8737   27.8017   35.3902 H           1 DGX       0.0239
     63 H26       -19.1623   26.1621   34.8270 H           1 DGX       0.0239
     64 H27       -18.6733   27.3920   33.6855 H           1 DGX       0.0239
     65 H28       -16.2729   28.3622   29.0896 H           1 DGX       0.0235
     66 H29       -16.7961   29.1381   30.5751 H           1 DGX       0.0235
     67 H30       -17.2295   27.4662   30.2552 H           1 DGX       0.0235
     68 H31       -18.5424   27.6549   38.1082 H           1 DGX       0.0859
     69 H32       -17.4998   26.6848   39.1972 H           1 DGX       0.0859
     70 H33       -18.6849   24.0813   36.5042 H           1 DGX       0.0295
     71 H34       -10.3917   29.2594   29.2372 H           1 DGX       0.0910
     72 H35        -9.7897   26.6932   27.6450 H           1 DGX       0.0340
     73 H36        -9.2023   27.0392   29.2754 H           1 DGX       0.0340
     74 H37        -7.4819   27.4515   27.4614 H           1 DGX       0.0621
     75 H38        -7.2044   28.4652   29.3312 H           1 DGX       0.2099
     76 H39        -8.8067   28.2842   25.6408 H           1 DGX       0.0645
     77 H40        -6.6908   29.3440   26.2953 H           1 DGX       0.2100
     78 H41        -9.5960   30.7027   27.3668 H           1 DGX       0.0621
     79 H42       -11.2548   31.1320   25.5556 H           1 DGX       0.0255
     80 H43       -10.5767   29.7887   24.6160 H           1 DGX       0.0255
     81 H44        -9.5887   31.2219   24.9611 H           1 DGX       0.0255
@<TRIPOS>BOND
     1    11     1   1
     2     1     2   1
     3     2     3   1
     4     3     5   1
     5     3     4   1
     6     4    29   1
     7    29    36   1
     8    29    30   1
     9    30    31   1
    10    31    33   1
    11    31    32   1
    12    33    35   1
    13    33    34   1
    14    35    37   1
    15    36    35   1
    16     5     6   1
    17    11     6   1
    18     6     7   1
    19     7     8   1
    20     8     9   1
    21     9    16   1
    22     9    10   1
    23    10    12   1
    24    10    11   1
    25    11    22   1
    26    12    13   1
    27    13    15   1
    28    13    14   1
    29    15    21   1
    30    15    20   1
    31    15    16   1
    32    16    18   1
    33    16    17   1
    34    18    19   1
    35    20    19   1
    36    20    23   1
    37    23    26   2
    38    23    24   1
    39    24    25   1
    40    25    27   1
    41    27    28   2
    42    27    26   1
    43     1    38   1
    44     1    39   1
    45     2    40   1
    46     2    41   1
    47     3    42   1
    48     5    43   1
    49     5    44   1
    50     6    45   1
    51     7    46   1
    52     7    47   1
    53     8    48   1
    54     8    49   1
    55     9    50   1
    56    10    51   1
    57    12    52   1
    58    12    53   1
    59    13    54   1
    60    14    55   1
    61    17    56   1
    62    18    57   1
    63    18    58   1
    64    19    59   1
    65    19    60   1
    66    20    61   1
    67    21    62   1
    68    21    63   1
    69    21    64   1
    70    22    65   1
    71    22    66   1
    72    22    67   1
    73    24    68   1
    74    24    69   1
    75    26    70   1
    76    29    71   1
    77    30    72   1
    78    30    73   1
    79    31    74   1
    80    32    75   1
    81    33    76   1
    82    34    77   1
    83    35    78   1
    84    37    79   1
    85    37    80   1
    86    37    81   1
@<TRIPOS>SUBSTRUCTURE
     1  DGX      1

