@<TRIPOS>MOLECULE
1igj_ligand_036
    81    86
SMALL
GAST_HUCK
****
This file was generated by PARSER (from files_GN.cpp)

@<TRIPOS>ATOM
      1 C1        -12.8471   27.2339   30.5179 C.3         1 DGX      -0.0448
      2 C2        -14.3545   27.4230   30.2040 C.3         1 DGX      -0.0260
      3 C3        -14.7072   26.9240   28.7748 C.3         1 DGX       0.0620
      4 O3        -14.5933   25.4919   28.6175 O.3         1 DGX      -0.3480
      5 C4        -13.7816   27.6089   27.7311 C.3         1 DGX      -0.0232
      6 C5        -12.2496   27.4850   28.0571 C.3         1 DGX      -0.0330
      7 C6        -11.3898   28.1981   26.9666 C.3         1 DGX      -0.0493
      8 C7        -11.4365   29.7443   27.0723 C.3         1 DGX      -0.0470
      9 C8        -11.0768   30.2979   28.4915 C.3         1 DGX      -0.0079
     10 C9        -11.9359   29.5561   29.5927 C.3         1 DGX      -0.0276
     11 C10       -11.8694   27.9620   29.5152 C.3         1 DGX      -0.0258
     12 C11       -11.6257   30.1607   30.9990 C.3         1 DGX      -0.0223
     13 C12       -11.8247   31.6957   31.0304 C.3         1 DGX       0.0664
     14 O12       -11.6463   32.1564   32.3759 O.3         1 DGX      -0.3909
     15 C13       -10.9398   32.4989   29.9922 C.3         1 DGX       0.0405
     16 C14       -11.1345   31.8828   28.5584 C.3         1 DGX       0.0799
     17 O14       -10.1118   32.4267   27.7056 O.3         1 DGX      -0.3874
     18 C15       -12.4606   32.5188   28.0598 C.3         1 DGX      -0.0200
     19 C16       -12.5273   33.9317   28.6751 C.3         1 DGX      -0.0318
     20 C17       -11.5222   33.9669   29.8667 C.3         1 DGX       0.0177
     21 C18        -9.4374   32.4621   30.4529 C.3         1 DGX      -0.0516
     22 C19       -10.4351   27.4325   29.8848 C.3         1 DGX      -0.0590
     23 C20       -10.5778   35.0937   29.7893 C.2         1 DGX      -0.0063
     24 C21       -10.4339   36.0930   30.8281 C.3         1 DGX       0.1204
     25 O21        -9.4306   36.9573   30.2945 O.3         1 DGX      -0.2665
     26 C22        -9.7247   35.3763   28.7954 C.2         1 DGX       0.0017
     27 C23        -9.0425   36.5045   29.0896 C.2         1 DGX       0.2187
     28 O23        -8.1340   37.1006   28.2893 O.2         1 DGX      -0.3870
     29 C1X       -15.3173   24.5881   29.4824 C.3         1 DGX       0.1624
     30 C2X       -14.3172   23.9669   30.4988 C.3         1 DGX       0.0270
     31 C3X       -15.0455   23.0487   31.5164 C.3         1 DGX       0.0881
     32 O3X       -15.5049   21.8515   30.8806 O.3         1 DGX      -0.3890
     33 C4X       -16.2301   23.8023   32.1764 C.3         1 DGX       0.1070
     34 O4X       -16.9115   22.9137   33.0630 O.3         1 DGX      -0.3867
     35 C5X       -17.1821   24.3842   31.0889 C.3         1 DGX       0.0871
     36 O5X       -16.4473   25.2112   30.1508 O.3         1 DGX      -0.3456
     37 C6X       -18.2957   25.2680   31.7129 C.3         1 DGX      -0.0361
     38 H1        -12.6645   27.5510   31.5465 H           1 DGX       0.0271
     39 H2        -12.6655   26.1524   30.5079 H           1 DGX       0.0271
     40 H3        -14.6228   28.4799   30.3084 H           1 DGX       0.0290
     41 H4        -14.9390   26.8745   30.9497 H           1 DGX       0.0290
     42 H5        -15.7301   27.2216   28.5424 H           1 DGX       0.0597
     43 H6        -14.0728   28.6611   27.6562 H           1 DGX       0.0293
     44 H7        -13.9817   27.1635   26.7485 H           1 DGX       0.0293
     45 H8        -12.0202   26.4182   27.9722 H           1 DGX       0.0307
     46 H9        -11.7295   27.8972   25.9712 H           1 DGX       0.0268
     47 H10       -10.3512   27.8754   27.0446 H           1 DGX       0.0268
     48 H11       -12.4402   30.0717   26.7997 H           1 DGX       0.0269
     49 H12       -10.7545   30.1433   26.3228 H           1 DGX       0.0269
     50 H13       -10.0367   30.0367   28.6686 H           1 DGX       0.0332
     51 H14       -12.9782   29.8301   29.3926 H           1 DGX       0.0310
     52 H15       -10.6101   29.9201   31.3005 H           1 DGX       0.0293
     53 H16       -12.2992   29.7392   31.7439 H           1 DGX       0.0293
     54 H17       -12.8823   31.8768   30.8161 H           1 DGX       0.0602
     55 H18       -10.7968   31.7694   32.6789 H           1 DGX       0.2098
     56 H19       -10.2162   32.0292   26.8073 H           1 DGX       0.2102
     57 H20       -13.3252   31.9375   28.3934 H           1 DGX       0.0295
     58 H21       -12.4976   32.5729   26.9655 H           1 DGX       0.0295
     59 H22       -13.5470   34.1414   29.0158 H           1 DGX       0.0301
     60 H23       -12.2893   34.6701   27.9036 H           1 DGX       0.0301
     61 H24       -12.1243   34.1776   30.7594 H           1 DGX       0.0550
     62 H25        -9.3189   32.9207   31.4374 H           1 DGX       0.0239
     63 H26        -8.7904   33.0093   29.7666 H           1 DGX       0.0239
     64 H27        -9.0535   31.4436   30.5024 H           1 DGX       0.0239
     65 H28       -10.3703   26.3460   29.7552 H           1 DGX       0.0235
     66 H29       -10.1976   27.6541   30.9260 H           1 DGX       0.0235
     67 H30        -9.6470   27.8796   29.2740 H           1 DGX       0.0235
     68 H31       -10.0931   35.6508   31.7677 H           1 DGX       0.0859
     69 H32       -11.3633   36.6455   30.9862 H           1 DGX       0.0859
     70 H33        -9.6231   34.8577   27.9533 H           1 DGX       0.0295
     71 H34       -15.7020   23.7926   28.8400 H           1 DGX       0.0910
     72 H35       -13.8132   24.7779   31.0448 H           1 DGX       0.0340
     73 H36       -13.5509   23.3954   29.9683 H           1 DGX       0.0340
     74 H37       -14.3309   22.7617   32.2987 H           1 DGX       0.0621
     75 H38       -14.7234   21.2483   30.8656 H           1 DGX       0.2099
     76 H39       -15.8151   24.6252   32.7702 H           1 DGX       0.0645
     77 H40       -17.4462   23.5032   33.6537 H           1 DGX       0.2100
     78 H41       -17.6651   23.5638   30.5396 H           1 DGX       0.0621
     79 H42       -18.9308   25.6775   30.9219 H           1 DGX       0.0255
     80 H43       -17.8540   26.1031   32.2674 H           1 DGX       0.0255
     81 H44       -18.9182   24.6816   32.3863 H           1 DGX       0.0255
@<TRIPOS>BOND
     1    11     1   1
     2     1     2   1
     3     2     3   1
     4     3     5   1
     5     3     4   1
     6     4    29   1
     7    29    36   1
     8    29    30   1
     9    30    31   1
    10    31    33   1
    11    31    32   1
    12    33    35   1
    13    33    34   1
    14    35    37   1
    15    36    35   1
    16     5     6   1
    17    11     6   1
    18     6     7   1
    19     7     8   1
    20     8     9   1
    21     9    16   1
    22     9    10   1
    23    10    12   1
    24    10    11   1
    25    11    22   1
    26    12    13   1
    27    13    15   1
    28    13    14   1
    29    15    21   1
    30    15    20   1
    31    15    16   1
    32    16    18   1
    33    16    17   1
    34    18    19   1
    35    20    19   1
    36    20    23   1
    37    23    26   2
    38    23    24   1
    39    24    25   1
    40    25    27   1
    41    27    28   2
    42    27    26   1
    43     1    38   1
    44     1    39   1
    45     2    40   1
    46     2    41   1
    47     3    42   1
    48     5    43   1
    49     5    44   1
    50     6    45   1
    51     7    46   1
    52     7    47   1
    53     8    48   1
    54     8    49   1
    55     9    50   1
    56    10    51   1
    57    12    52   1
    58    12    53   1
    59    13    54   1
    60    14    55   1
    61    17    56   1
    62    18    57   1
    63    18    58   1
    64    19    59   1
    65    19    60   1
    66    20    61   1
    67    21    62   1
    68    21    63   1
    69    21    64   1
    70    22    65   1
    71    22    66   1
    72    22    67   1
    73    24    68   1
    74    24    69   1
    75    26    70   1
    76    29    71   1
    77    30    72   1
    78    30    73   1
    79    31    74   1
    80    32    75   1
    81    33    76   1
    82    34    77   1
    83    35    78   1
    84    37    79   1
    85    37    80   1
    86    37    81   1
@<TRIPOS>SUBSTRUCTURE
     1  DGX      1

