@<TRIPOS>MOLECULE
1igj_ligand_066
    81    86
SMALL
GAST_HUCK
****
This file was generated by PARSER (from files_GN.cpp)

@<TRIPOS>ATOM
      1 C1        -15.4483   28.7514   31.5453 C.3         1 DGX      -0.0448
      2 C2        -16.1095   28.2002   30.2526 C.3         1 DGX      -0.0260
      3 C3        -15.1503   27.2481   29.4904 C.3         1 DGX       0.0620
      4 O3        -14.9526   26.0678   30.3134 O.3         1 DGX      -0.3480
      5 C4        -13.8535   28.0375   29.1630 C.3         1 DGX      -0.0232
      6 C5        -13.1387   28.5473   30.4619 C.3         1 DGX      -0.0330
      7 C6        -11.7662   29.1980   30.1201 C.3         1 DGX      -0.0493
      8 C7        -11.9201   30.5799   29.4461 C.3         1 DGX      -0.0470
      9 C8        -12.8019   31.5688   30.2756 C.3         1 DGX      -0.0079
     10 C9        -14.1867   30.9243   30.6659 C.3         1 DGX      -0.0276
     11 C10       -14.0577   29.4861   31.3532 C.3         1 DGX      -0.0258
     12 C11       -15.0181   31.9722   31.4752 C.3         1 DGX      -0.0223
     13 C12       -15.1890   33.3126   30.7134 C.3         1 DGX       0.0664
     14 O12       -16.0195   34.1888   31.4821 O.3         1 DGX      -0.3909
     15 C13       -13.8353   34.0277   30.3054 C.3         1 DGX       0.0405
     16 C14       -12.8898   32.9891   29.5871 C.3         1 DGX       0.0799
     17 O14       -11.5341   33.4740   29.5578 O.3         1 DGX      -0.3874
     18 C15       -13.3937   32.9976   28.1184 C.3         1 DGX      -0.0200
     19 C16       -13.7323   34.4696   27.8213 C.3         1 DGX      -0.0318
     20 C17       -14.1456   35.1099   29.1802 C.3         1 DGX       0.0177
     21 C18       -13.1674   34.6245   31.5991 C.3         1 DGX      -0.0516
     22 C19       -13.4425   29.6002   32.7992 C.3         1 DGX      -0.0590
     23 C20       -13.6394   36.4843   29.3438 C.2         1 DGX      -0.0063
     24 C21       -14.4912   37.6253   29.6232 C.3         1 DGX       0.1204
     25 O21       -13.5604   38.7045   29.6855 O.3         1 DGX      -0.2665
     26 C22       -12.3731   36.9018   29.2529 C.2         1 DGX       0.0017
     27 C23       -12.3173   38.2363   29.4605 C.2         1 DGX       0.2187
     28 O23       -11.1974   38.9909   29.4466 O.2         1 DGX      -0.3870
     29 C1X       -14.2976   24.8694   29.8393 C.3         1 DGX       0.1624
     30 C2X       -15.0698   24.1646   28.6899 C.3         1 DGX       0.0270
     31 C3X       -14.2947   22.9329   28.1547 C.3         1 DGX       0.0881
     32 O3X       -14.3476   21.8484   29.0863 O.3         1 DGX      -0.3890
     33 C4X       -12.8296   23.3190   27.8066 C.3         1 DGX       0.1070
     34 O4X       -12.0935   22.1715   27.3814 O.3         1 DGX      -0.3867
     35 C5X       -12.1392   24.0167   29.0163 C.3         1 DGX       0.0871
     36 O5X       -12.9242   25.1343   29.4846 O.3         1 DGX      -0.3456
     37 C6X       -10.7331   24.5547   28.6624 C.3         1 DGX      -0.0361
     38 H1        -16.1672   29.3974   32.0486 H           1 DGX       0.0271
     39 H2        -15.3131   27.8918   32.2091 H           1 DGX       0.0271
     40 H3        -16.4068   29.0301   29.6057 H           1 DGX       0.0290
     41 H4        -17.0212   27.6554   30.5158 H           1 DGX       0.0290
     42 H5        -15.6438   26.9679   28.5559 H           1 DGX       0.0597
     43 H6        -14.1191   28.8749   28.5156 H           1 DGX       0.0293
     44 H7        -13.1836   27.4114   28.5738 H           1 DGX       0.0293
     45 H8        -12.9012   27.6498   31.0440 H           1 DGX       0.0307
     46 H9        -11.1963   28.5393   29.4583 H           1 DGX       0.0268
     47 H10       -11.1732   29.3103   31.0311 H           1 DGX       0.0268
     48 H11       -12.3462   30.4382   28.4514 H           1 DGX       0.0269
     49 H12       -10.9184   30.9979   29.3119 H           1 DGX       0.0269
     50 H13       -12.2624   31.7384   31.2110 H           1 DGX       0.0332
     51 H14       -14.7327   30.7761   29.7335 H           1 DGX       0.0310
     52 H15       -14.5570   32.1654   32.4436 H           1 DGX       0.0293
     53 H16       -16.0190   31.5843   31.6640 H           1 DGX       0.0293
     54 H17       -15.7624   33.0781   29.8110 H           1 DGX       0.0602
     55 H18       -16.8777   33.7235   31.5794 H           1 DGX       0.2098
     56 H19       -11.5452   34.3120   29.0576 H           1 DGX       0.2102
     57 H20       -14.2889   32.3821   28.0030 H           1 DGX       0.0295
     58 H21       -12.6354   32.6313   27.4208 H           1 DGX       0.0295
     59 H22       -14.5374   34.5334   27.0833 H           1 DGX       0.0301
     60 H23       -12.8514   34.9543   27.3903 H           1 DGX       0.0301
     61 H24       -15.2335   35.2279   29.1165 H           1 DGX       0.0550
     62 H25       -13.8053   35.3908   32.0431 H           1 DGX       0.0239
     63 H26       -12.2050   35.0855   31.3813 H           1 DGX       0.0239
     64 H27       -12.9878   33.8563   32.3499 H           1 DGX       0.0239
     65 H28       -13.2449   28.6114   33.2195 H           1 DGX       0.0235
     66 H29       -14.1288   30.1063   33.4808 H           1 DGX       0.0235
     67 H30       -12.5020   30.1466   32.8114 H           1 DGX       0.0235
     68 H31       -15.0086   37.5107   30.5784 H           1 DGX       0.0859
     69 H32       -15.2116   37.7925   28.8189 H           1 DGX       0.0859
     70 H33       -11.5821   36.3401   29.0580 H           1 DGX       0.0295
     71 H34       -14.2879   24.1962   30.7014 H           1 DGX       0.0910
     72 H35       -15.2054   24.8601   27.8607 H           1 DGX       0.0340
     73 H36       -16.0582   23.8580   29.0418 H           1 DGX       0.0340
     74 H37       -14.7903   22.5876   27.2438 H           1 DGX       0.0621
     75 H38       -13.8915   22.1594   29.8957 H           1 DGX       0.2099
     76 H39       -12.8535   24.0164   26.9635 H           1 DGX       0.0645
     77 H40       -12.0373   21.5857   28.1660 H           1 DGX       0.2100
     78 H41       -12.0262   23.2946   29.8292 H           1 DGX       0.0621
     79 H42       -10.3024   25.0633   29.5272 H           1 DGX       0.0255
     80 H43       -10.7925   25.2650   27.8346 H           1 DGX       0.0255
     81 H44       -10.0706   23.7344   28.3793 H           1 DGX       0.0255
@<TRIPOS>BOND
     1    11     1   1
     2     1     2   1
     3     2     3   1
     4     3     5   1
     5     3     4   1
     6     4    29   1
     7    29    36   1
     8    29    30   1
     9    30    31   1
    10    31    33   1
    11    31    32   1
    12    33    35   1
    13    33    34   1
    14    35    37   1
    15    36    35   1
    16     5     6   1
    17    11     6   1
    18     6     7   1
    19     7     8   1
    20     8     9   1
    21     9    16   1
    22     9    10   1
    23    10    12   1
    24    10    11   1
    25    11    22   1
    26    12    13   1
    27    13    15   1
    28    13    14   1
    29    15    21   1
    30    15    20   1
    31    15    16   1
    32    16    18   1
    33    16    17   1
    34    18    19   1
    35    20    19   1
    36    20    23   1
    37    23    26   2
    38    23    24   1
    39    24    25   1
    40    25    27   1
    41    27    28   2
    42    27    26   1
    43     1    38   1
    44     1    39   1
    45     2    40   1
    46     2    41   1
    47     3    42   1
    48     5    43   1
    49     5    44   1
    50     6    45   1
    51     7    46   1
    52     7    47   1
    53     8    48   1
    54     8    49   1
    55     9    50   1
    56    10    51   1
    57    12    52   1
    58    12    53   1
    59    13    54   1
    60    14    55   1
    61    17    56   1
    62    18    57   1
    63    18    58   1
    64    19    59   1
    65    19    60   1
    66    20    61   1
    67    21    62   1
    68    21    63   1
    69    21    64   1
    70    22    65   1
    71    22    66   1
    72    22    67   1
    73    24    68   1
    74    24    69   1
    75    26    70   1
    76    29    71   1
    77    30    72   1
    78    30    73   1
    79    31    74   1
    80    32    75   1
    81    33    76   1
    82    34    77   1
    83    35    78   1
    84    37    79   1
    85    37    80   1
    86    37    81   1
@<TRIPOS>SUBSTRUCTURE
     1  DGX      1

