@<TRIPOS>MOLECULE
1igj_ligand_076
    81    86
SMALL
GAST_HUCK
****
This file was generated by PARSER (from files_GN.cpp)

@<TRIPOS>ATOM
      1 C1        -12.1596   26.5191   25.8078 C.3         1 DGX      -0.0448
      2 C2        -10.6134   26.4996   25.8664 C.3         1 DGX      -0.0260
      3 C3        -10.1025   25.1394   26.3944 C.3         1 DGX       0.0620
      4 O3        -10.3824   24.1622   25.3641 O.3         1 DGX      -0.3480
      5 C4        -10.7646   24.7645   27.7444 C.3         1 DGX      -0.0232
      6 C5        -12.3250   24.9050   27.7730 C.3         1 DGX      -0.0330
      7 C6        -12.8677   24.6163   29.2072 C.3         1 DGX      -0.0493
      8 C7        -12.6355   25.7864   30.1989 C.3         1 DGX      -0.0470
      9 C8        -13.1559   27.1658   29.6810 C.3         1 DGX      -0.0079
     10 C9        -12.6356   27.4578   28.2270 C.3         1 DGX      -0.0276
     11 C10       -12.8776   26.2712   27.1891 C.3         1 DGX      -0.0258
     12 C11       -13.1617   28.8561   27.7623 C.3         1 DGX      -0.0223
     13 C12       -12.8387   30.0083   28.7484 C.3         1 DGX       0.0664
     14 O12       -13.3586   31.2144   28.1781 O.3         1 DGX      -0.3909
     15 C13       -13.3402   29.7661   30.2314 C.3         1 DGX       0.0405
     16 C14       -12.8760   28.3381   30.7078 C.3         1 DGX       0.0799
     17 O14       -13.5740   27.9977   31.9150 O.3         1 DGX      -0.3874
     18 C15       -11.3814   28.5611   31.0885 C.3         1 DGX      -0.0200
     19 C16       -11.2330   30.0306   31.5390 C.3         1 DGX      -0.0318
     20 C17       -12.5723   30.7524   31.2037 C.3         1 DGX       0.0177
     21 C18       -14.9009   29.9568   30.2765 C.3         1 DGX      -0.0516
     22 C19       -14.4062   26.1051   26.8529 C.3         1 DGX      -0.0590
     23 C20       -13.2715   31.2749   32.4035 C.2         1 DGX      -0.0063
     24 C21       -13.5864   30.5740   33.6415 C.3         1 DGX       0.1204
     25 O21       -14.1730   31.5954   34.4445 O.3         1 DGX      -0.2665
     26 C22       -13.6726   32.5459   32.5250 C.2         1 DGX       0.0017
     27 C23       -14.2144   32.7478   33.7474 C.2         1 DGX       0.2187
     28 O23       -14.7041   33.9171   34.2122 O.2         1 DGX      -0.3870
     29 C1X        -9.3581   23.3060   24.8191 C.3         1 DGX       0.1624
     30 C2X        -8.0921   24.0255   24.2701 C.3         1 DGX       0.0270
     31 C3X        -7.0894   23.0170   23.6584 C.3         1 DGX       0.0881
     32 O3X        -7.6160   22.5200   22.4272 O.3         1 DGX      -0.3890
     33 C4X        -6.7774   21.8905   24.6886 C.3         1 DGX       0.1070
     34 O4X        -5.9976   20.8524   24.1008 O.3         1 DGX      -0.3867
     35 C5X        -8.0861   21.3053   25.2980 C.3         1 DGX       0.0871
     36 O5X        -8.9629   22.3377   25.8036 O.3         1 DGX      -0.3456
     37 C6X        -7.8022   20.3746   26.4871 C.3         1 DGX      -0.0361
     38 H1        -12.4704   27.4660   25.3774 H           1 DGX       0.0271
     39 H2        -12.4722   25.7526   25.0924 H           1 DGX       0.0271
     40 H3        -10.2387   27.3075   26.4974 H           1 DGX       0.0290
     41 H4        -10.2121   26.6727   24.8610 H           1 DGX       0.0290
     42 H5         -9.0342   25.2392   26.5905 H           1 DGX       0.0597
     43 H6        -10.3166   25.3950   28.5122 H           1 DGX       0.0293
     44 H7        -10.4884   23.7307   27.9752 H           1 DGX       0.0293
     45 H8        -12.6872   24.0912   27.1345 H           1 DGX       0.0307
     46 H9        -12.3933   23.7139   29.6079 H           1 DGX       0.0268
     47 H10       -13.9383   24.4063   29.1529 H           1 DGX       0.0268
     48 H11       -11.5697   25.8515   30.4186 H           1 DGX       0.0269
     49 H12       -13.1421   25.5288   31.1307 H           1 DGX       0.0269
     50 H13       -14.2436   27.0771   29.6235 H           1 DGX       0.0332
     51 H14       -11.5560   27.5662   28.3180 H           1 DGX       0.0310
     52 H15       -14.2391   28.8252   27.5936 H           1 DGX       0.0293
     53 H16       -12.6871   29.1250   26.8204 H           1 DGX       0.0293
     54 H17       -11.7496   30.1192   28.7385 H           1 DGX       0.0602
     55 H18       -12.9473   31.9494   28.6772 H           1 DGX       0.2098
     56 H19       -13.1051   27.2353   32.3100 H           1 DGX       0.2102
     57 H20       -10.7158   28.3840   30.2406 H           1 DGX       0.0295
     58 H21       -11.0717   27.8826   31.8811 H           1 DGX       0.0295
     59 H22       -10.4076   30.4964   30.9896 H           1 DGX       0.0301
     60 H23       -10.9671   30.0768   32.5985 H           1 DGX       0.0301
     61 H24       -12.2956   31.6387   30.6223 H           1 DGX       0.0550
     62 H25       -15.1654   30.9865   30.0319 H           1 DGX       0.0239
     63 H26       -15.3079   29.7407   31.2624 H           1 DGX       0.0239
     64 H27       -15.4053   29.2998   29.5695 H           1 DGX       0.0239
     65 H28       -14.5740   25.2337   26.2151 H           1 DGX       0.0235
     66 H29       -14.7867   26.9736   26.3132 H           1 DGX       0.0235
     67 H30       -15.0164   25.9761   27.7461 H           1 DGX       0.0235
     68 H31       -12.6966   30.1887   34.1415 H           1 DGX       0.0859
     69 H32       -14.3177   29.7793   33.5028 H           1 DGX       0.0859
     70 H33       -13.5820   33.2566   31.8360 H           1 DGX       0.0295
     71 H34        -9.8490   22.7856   23.9899 H           1 DGX       0.0910
     72 H35        -7.5705   24.5226   25.0881 H           1 DGX       0.0340
     73 H36        -8.3771   24.7832   23.5356 H           1 DGX       0.0340
     74 H37        -6.1611   23.5478   23.4260 H           1 DGX       0.0621
     75 H38        -6.8322   22.2554   21.9011 H           1 DGX       0.2099
     76 H39        -6.1831   22.3230   25.4978 H           1 DGX       0.0645
     77 H40        -5.1295   21.2649   23.9013 H           1 DGX       0.2100
     78 H41        -8.6143   20.7184   24.5401 H           1 DGX       0.0621
     79 H42        -8.7507   20.0302   26.8966 H           1 DGX       0.0255
     80 H43        -7.2599   20.9146   27.2639 H           1 DGX       0.0255
     81 H44        -7.2170   19.5093   26.1731 H           1 DGX       0.0255
@<TRIPOS>BOND
     1    11     1   1
     2     1     2   1
     3     2     3   1
     4     3     5   1
     5     3     4   1
     6     4    29   1
     7    29    36   1
     8    29    30   1
     9    30    31   1
    10    31    33   1
    11    31    32   1
    12    33    35   1
    13    33    34   1
    14    35    37   1
    15    36    35   1
    16     5     6   1
    17    11     6   1
    18     6     7   1
    19     7     8   1
    20     8     9   1
    21     9    16   1
    22     9    10   1
    23    10    12   1
    24    10    11   1
    25    11    22   1
    26    12    13   1
    27    13    15   1
    28    13    14   1
    29    15    21   1
    30    15    20   1
    31    15    16   1
    32    16    18   1
    33    16    17   1
    34    18    19   1
    35    20    19   1
    36    20    23   1
    37    23    26   2
    38    23    24   1
    39    24    25   1
    40    25    27   1
    41    27    28   2
    42    27    26   1
    43     1    38   1
    44     1    39   1
    45     2    40   1
    46     2    41   1
    47     3    42   1
    48     5    43   1
    49     5    44   1
    50     6    45   1
    51     7    46   1
    52     7    47   1
    53     8    48   1
    54     8    49   1
    55     9    50   1
    56    10    51   1
    57    12    52   1
    58    12    53   1
    59    13    54   1
    60    14    55   1
    61    17    56   1
    62    18    57   1
    63    18    58   1
    64    19    59   1
    65    19    60   1
    66    20    61   1
    67    21    62   1
    68    21    63   1
    69    21    64   1
    70    22    65   1
    71    22    66   1
    72    22    67   1
    73    24    68   1
    74    24    69   1
    75    26    70   1
    76    29    71   1
    77    30    72   1
    78    30    73   1
    79    31    74   1
    80    32    75   1
    81    33    76   1
    82    34    77   1
    83    35    78   1
    84    37    79   1
    85    37    80   1
    86    37    81   1
@<TRIPOS>SUBSTRUCTURE
     1  DGX      1

