@<TRIPOS>MOLECULE
1igj_ligand_047
    81    86
SMALL
GAST_HUCK
****
This file was generated by PARSER (from files_GN.cpp)

@<TRIPOS>ATOM
      1 C1        -13.3748   29.8746   31.0456 C.3         1 DGX      -0.0448
      2 C2        -12.2561   30.0514   32.1015 C.3         1 DGX      -0.0260
      3 C3        -11.3301   31.2489   31.7544 C.3         1 DGX       0.0620
      4 O3        -11.9679   32.5447   31.7949 O.3         1 DGX      -0.3480
      5 C4        -10.7582   31.0700   30.3224 C.3         1 DGX      -0.0232
      6 C5        -11.8815   30.8728   29.2401 C.3         1 DGX      -0.0330
      7 C6        -11.2630   30.7645   27.8107 C.3         1 DGX      -0.0493
      8 C7        -10.5922   29.3943   27.5415 C.3         1 DGX      -0.0470
      9 C8        -11.5168   28.1712   27.8597 C.3         1 DGX      -0.0079
     10 C9        -12.1262   28.2908   29.3115 C.3         1 DGX      -0.0276
     11 C10       -12.8748   29.6808   29.5619 C.3         1 DGX      -0.0258
     12 C11       -12.9508   27.0163   29.6731 C.3         1 DGX      -0.0223
     13 C12       -12.1829   25.6945   29.4126 C.3         1 DGX       0.0664
     14 O12       -13.0052   24.5954   29.8137 O.3         1 DGX      -0.3909
     15 C13       -11.6130   25.5112   27.9417 C.3         1 DGX       0.0405
     16 C14       -10.7976   26.8004   27.5502 C.3         1 DGX       0.0799
     17 O14       -10.5237   26.7954   26.1335 O.3         1 DGX      -0.3874
     18 C15        -9.4378   26.6104   28.2676 C.3         1 DGX      -0.0200
     19 C16        -9.1672   25.0992   28.2263 C.3         1 DGX      -0.0318
     20 C17       -10.5174   24.3520   27.9387 C.3         1 DGX       0.0177
     21 C18       -12.8361   25.2987   26.9726 C.3         1 DGX      -0.0516
     22 C19       -14.1670   29.8151   28.6704 C.3         1 DGX      -0.0590
     23 C20       -10.3374   23.3415   26.8682 C.2         1 DGX      -0.0063
     24 C21       -11.1250   23.0623   25.6782 C.3         1 DGX       0.1204
     25 O21       -10.4477   21.9610   25.0793 O.3         1 DGX      -0.2665
     26 C22        -9.3464   22.4377   26.9139 C.2         1 DGX       0.0017
     27 C23        -9.3917   21.6173   25.8441 C.2         1 DGX       0.2187
     28 O23        -8.5186   20.6294   25.5672 O.2         1 DGX      -0.3870
     29 C1X       -12.4990   33.0417   33.0353 C.3         1 DGX       0.1624
     30 C2X       -12.3656   34.5851   33.0207 C.3         1 DGX       0.0270
     31 C3X       -13.1120   35.2259   34.2199 C.3         1 DGX       0.0881
     32 O3X       -12.4265   34.9422   35.4404 O.3         1 DGX      -0.3890
     33 C4X       -14.5778   34.7118   34.2907 C.3         1 DGX       0.1070
     34 O4X       -15.2278   35.2258   35.4561 O.3         1 DGX      -0.3867
     35 C5X       -14.6213   33.1541   34.2518 C.3         1 DGX       0.0871
     36 O5X       -13.8866   32.6571   33.1115 O.3         1 DGX      -0.3456
     37 C6X       -16.0668   32.6129   34.1525 C.3         1 DGX      -0.0361
     38 H1        -14.0135   29.0479   31.3525 H           1 DGX       0.0271
     39 H2        -14.0008   30.7700   31.1028 H           1 DGX       0.0271
     40 H3        -11.6621   29.1349   32.1685 H           1 DGX       0.0290
     41 H4        -12.7092   30.2036   33.0848 H           1 DGX       0.0290
     42 H5        -10.4898   31.2534   32.4562 H           1 DGX       0.0597
     43 H6        -10.0729   30.2203   30.3273 H           1 DGX       0.0293
     44 H7        -10.1632   31.9548   30.0770 H           1 DGX       0.0293
     45 H8        -12.4525   31.8080   29.2415 H           1 DGX       0.0307
     46 H9        -10.5198   31.5552   27.6594 H           1 DGX       0.0268
     47 H10       -12.0416   30.9253   27.0610 H           1 DGX       0.0268
     48 H11        -9.6792   29.3407   28.1391 H           1 DGX       0.0269
     49 H12       -10.2931   29.3639   26.4895 H           1 DGX       0.0269
     50 H13       -12.3431   28.2240   27.1523 H           1 DGX       0.0332
     51 H14       -11.2772   28.2674   29.9941 H           1 DGX       0.0310
     52 H15       -13.8963   27.0032   29.1350 H           1 DGX       0.0293
     53 H16       -13.1896   27.0335   30.7364 H           1 DGX       0.0293
     54 H17       -11.3485   25.6798   30.1163 H           1 DGX       0.0602
     55 H18       -13.8143   24.6460   29.2620 H           1 DGX       0.2098
     56 H19       -10.0733   25.9475   25.9356 H           1 DGX       0.2102
     57 H20        -9.4743   26.9489   29.3093 H           1 DGX       0.0295
     58 H21        -8.6337   27.1606   27.7694 H           1 DGX       0.0295
     59 H22        -8.7325   24.7651   29.1740 H           1 DGX       0.0301
     60 H23        -8.4261   24.9248   27.4426 H           1 DGX       0.0301
     61 H24       -10.7294   23.7254   28.8113 H           1 DGX       0.0550
     62 H25       -13.3235   24.3386   27.1775 H           1 DGX       0.0239
     63 H26       -12.5619   25.3296   25.9133 H           1 DGX       0.0239
     64 H27       -13.5887   26.0854   27.1018 H           1 DGX       0.0239
     65 H28       -14.6093   30.8088   28.7713 H           1 DGX       0.0235
     66 H29       -14.9270   29.0925   28.9681 H           1 DGX       0.0235
     67 H30       -13.9727   29.6676   27.6118 H           1 DGX       0.0235
     68 H31       -11.1199   23.9075   24.9904 H           1 DGX       0.0859
     69 H32       -12.1377   22.7494   25.9260 H           1 DGX       0.0859
     70 H33        -8.6351   22.3933   27.6051 H           1 DGX       0.0295
     71 H34       -11.9454   32.6400   33.8893 H           1 DGX       0.0910
     72 H35       -12.7907   34.9746   32.0938 H           1 DGX       0.0340
     73 H36       -11.3115   34.8650   33.0502 H           1 DGX       0.0340
     74 H37       -13.1224   36.3138   34.0957 H           1 DGX       0.0621
     75 H38       -11.5337   35.3338   35.3356 H           1 DGX       0.2099
     76 H39       -15.1167   35.1043   33.4221 H           1 DGX       0.0645
     77 H40       -14.7332   34.8543   36.2165 H           1 DGX       0.2100
     78 H41       -14.1767   32.7562   35.1689 H           1 DGX       0.0621
     79 H42       -16.0518   31.5219   34.1305 H           1 DGX       0.0255
     80 H43       -16.5477   32.9727   33.2409 H           1 DGX       0.0255
     81 H44       -16.6591   32.9317   35.0130 H           1 DGX       0.0255
@<TRIPOS>BOND
     1    11     1   1
     2     1     2   1
     3     2     3   1
     4     3     5   1
     5     3     4   1
     6     4    29   1
     7    29    36   1
     8    29    30   1
     9    30    31   1
    10    31    33   1
    11    31    32   1
    12    33    35   1
    13    33    34   1
    14    35    37   1
    15    36    35   1
    16     5     6   1
    17    11     6   1
    18     6     7   1
    19     7     8   1
    20     8     9   1
    21     9    16   1
    22     9    10   1
    23    10    12   1
    24    10    11   1
    25    11    22   1
    26    12    13   1
    27    13    15   1
    28    13    14   1
    29    15    21   1
    30    15    20   1
    31    15    16   1
    32    16    18   1
    33    16    17   1
    34    18    19   1
    35    20    19   1
    36    20    23   1
    37    23    26   2
    38    23    24   1
    39    24    25   1
    40    25    27   1
    41    27    28   2
    42    27    26   1
    43     1    38   1
    44     1    39   1
    45     2    40   1
    46     2    41   1
    47     3    42   1
    48     5    43   1
    49     5    44   1
    50     6    45   1
    51     7    46   1
    52     7    47   1
    53     8    48   1
    54     8    49   1
    55     9    50   1
    56    10    51   1
    57    12    52   1
    58    12    53   1
    59    13    54   1
    60    14    55   1
    61    17    56   1
    62    18    57   1
    63    18    58   1
    64    19    59   1
    65    19    60   1
    66    20    61   1
    67    21    62   1
    68    21    63   1
    69    21    64   1
    70    22    65   1
    71    22    66   1
    72    22    67   1
    73    24    68   1
    74    24    69   1
    75    26    70   1
    76    29    71   1
    77    30    72   1
    78    30    73   1
    79    31    74   1
    80    32    75   1
    81    33    76   1
    82    34    77   1
    83    35    78   1
    84    37    79   1
    85    37    80   1
    86    37    81   1
@<TRIPOS>SUBSTRUCTURE
     1  DGX      1

