@<TRIPOS>MOLECULE
1igj_ligand_021
    81    86
SMALL
GAST_HUCK
****
This file was generated by PARSER (from files_GN.cpp)

@<TRIPOS>ATOM
      1 C1        -13.1779   28.3414   32.2424 C.3         1 DGX      -0.0448
      2 C2        -12.5648   27.4292   31.1526 C.3         1 DGX      -0.0260
      3 C3        -13.0945   27.7551   29.7293 C.3         1 DGX       0.0620
      4 O3        -12.5444   28.9546   29.1406 O.3         1 DGX      -0.3480
      5 C4        -14.6438   27.8822   29.7113 C.3         1 DGX      -0.0232
      6 C5        -15.2476   28.7720   30.8560 C.3         1 DGX      -0.0330
      7 C6        -16.8036   28.8123   30.7730 C.3         1 DGX      -0.0493
      8 C7        -17.4531   27.4623   31.1616 C.3         1 DGX      -0.0470
      9 C8        -16.9589   26.8763   32.5263 C.3         1 DGX      -0.0079
     10 C9        -15.3955   26.9521   32.6904 C.3         1 DGX      -0.0276
     11 C10       -14.7546   28.3583   32.3003 C.3         1 DGX      -0.0258
     12 C11       -15.0197   26.4225   34.1095 C.3         1 DGX      -0.0223
     13 C12       -15.4883   24.9572   34.3040 C.3         1 DGX       0.0664
     14 O12       -15.0123   24.4958   35.5729 O.3         1 DGX      -0.3909
     15 C13       -17.0464   24.7256   34.1250 C.3         1 DGX       0.0405
     16 C14       -17.5603   25.4395   32.8087 C.3         1 DGX       0.0799
     17 O14       -18.9870   25.6381   32.8622 O.3         1 DGX      -0.3874
     18 C15       -17.3119   24.3714   31.7080 C.3         1 DGX      -0.0200
     19 C16       -17.7280   23.0470   32.3616 C.3         1 DGX      -0.0318
     20 C17       -17.3128   23.1761   33.8551 C.3         1 DGX       0.0177
     21 C18       -17.7807   25.3066   35.3904 C.3         1 DGX      -0.0516
     22 C19       -15.1275   29.4670   33.3526 C.3         1 DGX      -0.0590
     23 C20       -18.1730   22.4459   34.8013 C.2         1 DGX      -0.0063
     24 C21       -19.6163   22.2977   34.7516 C.3         1 DGX       0.1204
     25 O21       -19.8926   21.5673   35.9443 O.3         1 DGX      -0.2665
     26 C22       -17.7109   21.8327   35.8949 C.2         1 DGX       0.0017
     27 C23       -18.7411   21.3059   36.5916 C.2         1 DGX       0.2187
     28 O23       -18.6413   20.6297   37.7560 O.2         1 DGX      -0.3870
     29 C1X       -11.1436   29.1239   28.8193 C.3         1 DGX       0.1624
     30 C2X       -10.3064   27.8362   28.5254 C.3         1 DGX       0.0270
     31 C3X        -8.9124   28.1795   27.9356 C.3         1 DGX       0.0881
     32 O3X        -8.0970   28.8194   28.9219 O.3         1 DGX      -0.3890
     33 C4X        -9.0790   29.0919   26.6902 C.3         1 DGX       0.1070
     34 O4X        -7.8076   29.4194   26.1221 O.3         1 DGX      -0.3867
     35 C5X        -9.9163   30.3535   27.0565 C.3         1 DGX       0.0871
     36 O5X       -11.1777   29.9694   27.6468 O.3         1 DGX      -0.3456
     37 C6X       -10.2210   31.2196   25.8097 C.3         1 DGX      -0.0361
     38 H1        -12.7635   28.0497   33.2068 H           1 DGX       0.0271
     39 H2        -12.8103   29.3546   32.0527 H           1 DGX       0.0271
     40 H3        -12.7860   26.3846   31.3837 H           1 DGX       0.0290
     41 H4        -11.4768   27.5395   31.1773 H           1 DGX       0.0290
     42 H5        -12.8410   26.9173   29.0719 H           1 DGX       0.0597
     43 H6        -15.0496   26.8713   29.7618 H           1 DGX       0.0293
     44 H7        -14.9498   28.2896   28.7411 H           1 DGX       0.0293
     45 H8        -14.9043   29.7926   30.6546 H           1 DGX       0.0307
     46 H9        -17.1097   29.0774   29.7577 H           1 DGX       0.0268
     47 H10       -17.1937   29.5948   31.4273 H           1 DGX       0.0268
     48 H11       -17.2584   26.7546   30.3587 H           1 DGX       0.0269
     49 H12       -18.5356   27.6069   31.2029 H           1 DGX       0.0269
     50 H13       -17.3802   27.5325   33.2928 H           1 DGX       0.0332
     51 H14       -14.9888   26.2247   31.9904 H           1 DGX       0.0310
     52 H15       -15.4537   27.0564   34.8843 H           1 DGX       0.0293
     53 H16       -13.9387   26.4380   34.2463 H           1 DGX       0.0293
     54 H17       -14.9450   24.3703   33.5569 H           1 DGX       0.0602
     55 H18       -15.1759   23.5310   35.5833 H           1 DGX       0.2098
     56 H19       -19.3789   24.8187   33.2248 H           1 DGX       0.2102
     57 H20       -16.2588   24.3228   31.4238 H           1 DGX       0.0295
     58 H21       -17.9071   24.5478   30.8085 H           1 DGX       0.0295
     59 H22       -17.2445   22.1982   31.8698 H           1 DGX       0.0301
     60 H23       -18.8054   22.9289   32.2358 H           1 DGX       0.0301
     61 H24       -16.3578   22.6394   33.8931 H           1 DGX       0.0550
     62 H25       -17.4284   24.8277   36.3050 H           1 DGX       0.0239
     63 H26       -18.8586   25.1502   35.3354 H           1 DGX       0.0239
     64 H27       -17.6117   26.3795   35.4911 H           1 DGX       0.0239
     65 H28       -14.8133   30.4541   33.0082 H           1 DGX       0.0235
     66 H29       -14.6321   29.2854   34.3079 H           1 DGX       0.0235
     67 H30       -16.1955   29.5159   33.5470 H           1 DGX       0.0235
     68 H31       -19.9404   21.7150   33.8866 H           1 DGX       0.0859
     69 H32       -20.1241   23.2649   34.7676 H           1 DGX       0.0859
     70 H33       -16.7605   21.7859   36.1770 H           1 DGX       0.0295
     71 H34       -10.6810   29.6751   29.6412 H           1 DGX       0.0910
     72 H35       -10.8513   27.2135   27.8069 H           1 DGX       0.0340
     73 H36       -10.1687   27.2583   29.4469 H           1 DGX       0.0340
     74 H37        -8.4124   27.2546   27.6329 H           1 DGX       0.0621
     75 H38        -7.6455   28.0986   29.4106 H           1 DGX       0.2099
     76 H39        -9.6270   28.5257   25.9311 H           1 DGX       0.0645
     77 H40        -7.1651   29.4507   26.8648 H           1 DGX       0.2100
     78 H41        -9.3664   30.9684   27.7762 H           1 DGX       0.0621
     79 H42       -10.7909   32.1043   26.0987 H           1 DGX       0.0255
     80 H43       -10.8048   30.6473   25.0842 H           1 DGX       0.0255
     81 H44        -9.2932   31.5439   25.3362 H           1 DGX       0.0255
@<TRIPOS>BOND
     1    11     1   1
     2     1     2   1
     3     2     3   1
     4     3     5   1
     5     3     4   1
     6     4    29   1
     7    29    36   1
     8    29    30   1
     9    30    31   1
    10    31    33   1
    11    31    32   1
    12    33    35   1
    13    33    34   1
    14    35    37   1
    15    36    35   1
    16     5     6   1
    17    11     6   1
    18     6     7   1
    19     7     8   1
    20     8     9   1
    21     9    16   1
    22     9    10   1
    23    10    12   1
    24    10    11   1
    25    11    22   1
    26    12    13   1
    27    13    15   1
    28    13    14   1
    29    15    21   1
    30    15    20   1
    31    15    16   1
    32    16    18   1
    33    16    17   1
    34    18    19   1
    35    20    19   1
    36    20    23   1
    37    23    26   2
    38    23    24   1
    39    24    25   1
    40    25    27   1
    41    27    28   2
    42    27    26   1
    43     1    38   1
    44     1    39   1
    45     2    40   1
    46     2    41   1
    47     3    42   1
    48     5    43   1
    49     5    44   1
    50     6    45   1
    51     7    46   1
    52     7    47   1
    53     8    48   1
    54     8    49   1
    55     9    50   1
    56    10    51   1
    57    12    52   1
    58    12    53   1
    59    13    54   1
    60    14    55   1
    61    17    56   1
    62    18    57   1
    63    18    58   1
    64    19    59   1
    65    19    60   1
    66    20    61   1
    67    21    62   1
    68    21    63   1
    69    21    64   1
    70    22    65   1
    71    22    66   1
    72    22    67   1
    73    24    68   1
    74    24    69   1
    75    26    70   1
    76    29    71   1
    77    30    72   1
    78    30    73   1
    79    31    74   1
    80    32    75   1
    81    33    76   1
    82    34    77   1
    83    35    78   1
    84    37    79   1
    85    37    80   1
    86    37    81   1
@<TRIPOS>SUBSTRUCTURE
     1  DGX      1

