@<TRIPOS>MOLECULE
1igj_ligand_057
    81    86
SMALL
GAST_HUCK
****
This file was generated by PARSER (from files_GN.cpp)

@<TRIPOS>ATOM
      1 C1        -10.2766   28.2705   27.9065 C.3         1 DGX      -0.0448
      2 C2        -11.2685   27.4866   27.0226 C.3         1 DGX      -0.0260
      3 C3        -10.5867   26.9690   25.7284 C.3         1 DGX       0.0620
      4 O3         -9.5647   25.9658   25.9198 O.3         1 DGX      -0.3480
      5 C4         -9.9424   28.1635   24.9667 C.3         1 DGX      -0.0232
      6 C5         -8.9816   29.0463   25.8398 C.3         1 DGX      -0.0330
      7 C6         -8.4127   30.2334   25.0014 C.3         1 DGX      -0.0493
      8 C7         -9.4525   31.3520   24.7555 C.3         1 DGX      -0.0470
      9 C8        -10.0733   31.8903   26.0822 C.3         1 DGX      -0.0079
     10 C9        -10.6626   30.7138   26.9467 C.3         1 DGX      -0.0276
     11 C10        -9.6210   29.5267   27.2106 C.3         1 DGX      -0.0258
     12 C11       -11.3343   31.2966   28.2322 C.3         1 DGX      -0.0223
     13 C12       -12.4056   32.3640   27.8989 C.3         1 DGX       0.0664
     14 O12       -13.0633   32.7713   29.1007 O.3         1 DGX      -0.3909
     15 C13       -11.8589   33.6069   27.0932 C.3         1 DGX       0.0405
     16 C14       -11.0459   33.1136   25.8343 C.3         1 DGX       0.0799
     17 O14       -10.2055   34.1748   25.3348 O.3         1 DGX      -0.3874
     18 C15       -12.1303   32.8934   24.7514 C.3         1 DGX      -0.0200
     19 C16       -13.1216   34.0491   24.9540 C.3         1 DGX      -0.0318
     20 C17       -13.1053   34.3899   26.4764 C.3         1 DGX       0.0177
     21 C18       -10.9283   34.4650   28.0297 C.3         1 DGX      -0.0516
     22 C19        -8.4755   29.9574   28.2002 C.3         1 DGX      -0.0590
     23 C20       -13.2530   35.8153   26.8113 C.2         1 DGX      -0.0063
     24 C21       -13.1683   36.9561   25.9167 C.3         1 DGX       0.1204
     25 O21       -13.3395   38.0626   26.7993 O.3         1 DGX      -0.2665
     26 C22       -13.4988   36.2595   28.0495 C.2         1 DGX       0.0017
     27 C23       -13.5343   37.6097   28.0539 C.2         1 DGX       0.2187
     28 O23       -13.7077   38.3914   29.1436 O.2         1 DGX      -0.3870
     29 C1X        -9.8183   24.6265   26.4082 C.3         1 DGX       0.1624
     30 C2X       -11.2632   24.0773   26.2067 C.3         1 DGX       0.0270
     31 C3X       -11.3567   22.5655   26.5187 C.3         1 DGX       0.0881
     32 O3X       -11.1951   22.3297   27.9178 O.3         1 DGX      -0.3890
     33 C4X       -10.2963   21.7931   25.6898 C.3         1 DGX       0.1070
     34 O4X       -10.3336   20.4054   26.0163 O.3         1 DGX      -0.3867
     35 C5X        -8.8788   22.3826   25.9437 C.3         1 DGX       0.0871
     36 O5X        -8.8709   23.8078   25.6832 O.3         1 DGX      -0.3456
     37 C6X        -7.8209   21.7060   25.0392 C.3         1 DGX      -0.0361
     38 H1        -10.7822   28.5539   28.8294 H           1 DGX       0.0271
     39 H2         -9.4977   27.5586   28.2017 H           1 DGX       0.0271
     40 H3        -12.1226   28.1220   26.7618 H           1 DGX       0.0290
     41 H4        -11.6659   26.6537   27.6013 H           1 DGX       0.0290
     42 H5        -11.3596   26.5514   25.0803 H           1 DGX       0.0597
     43 H6        -10.7460   28.7775   24.5661 H           1 DGX       0.0293
     44 H7         -9.3890   27.7697   24.1104 H           1 DGX       0.0293
     45 H8         -8.1269   28.4020   26.0720 H           1 DGX       0.0307
     46 H9         -8.0497   29.8743   24.0345 H           1 DGX       0.0268
     47 H10        -7.5505   30.6651   25.5127 H           1 DGX       0.0268
     48 H11       -10.2380   30.9698   24.1019 H           1 DGX       0.0269
     49 H12        -8.9622   32.1629   24.2166 H           1 DGX       0.0269
     50 H13        -9.2492   32.2988   26.6615 H           1 DGX       0.0332
     51 H14       -11.4779   30.2925   26.3495 H           1 DGX       0.0310
     52 H15       -10.5892   31.7300   28.8956 H           1 DGX       0.0293
     53 H16       -11.8415   30.5022   28.7814 H           1 DGX       0.0293
     54 H17       -13.1690   31.8508   27.3084 H           1 DGX       0.0602
     55 H18       -13.5880   31.9953   29.3949 H           1 DGX       0.2098
     56 H19       -10.7453   34.9943   25.3555 H           1 DGX       0.2102
     57 H20       -12.6316   31.9362   24.8941 H           1 DGX       0.0295
     58 H21       -11.7169   32.9130   23.7378 H           1 DGX       0.0295
     59 H22       -14.1211   33.7619   24.6108 H           1 DGX       0.0301
     60 H23       -12.7856   34.8850   24.3353 H           1 DGX       0.0301
     61 H24       -14.0360   33.9469   26.8518 H           1 DGX       0.0550
     62 H25       -11.4265   34.7224   28.9632 H           1 DGX       0.0239
     63 H26       -10.6345   35.3964   27.5451 H           1 DGX       0.0239
     64 H27       -10.0141   33.9308   28.2810 H           1 DGX       0.0239
     65 H28        -7.7427   29.1551   28.3248 H           1 DGX       0.0235
     66 H29        -8.8703   30.1833   29.1943 H           1 DGX       0.0235
     67 H30        -7.9309   30.8303   27.8528 H           1 DGX       0.0235
     68 H31       -13.9695   36.9426   25.1761 H           1 DGX       0.0859
     69 H32       -12.1932   37.0092   25.4279 H           1 DGX       0.0859
     70 H33       -13.6279   35.6921   28.8548 H           1 DGX       0.0295
     71 H34        -9.5695   24.6088   27.4724 H           1 DGX       0.0910
     72 H35       -11.5527   24.2402   25.1690 H           1 DGX       0.0340
     73 H36       -11.9698   24.6046   26.8440 H           1 DGX       0.0340
     74 H37       -12.3525   22.2130   26.2362 H           1 DGX       0.0621
     75 H38       -11.4501   21.3869   28.0568 H           1 DGX       0.2099
     76 H39       -10.5431   21.8925   24.6275 H           1 DGX       0.0645
     77 H40       -11.2570   20.1275   25.8388 H           1 DGX       0.2100
     78 H41        -8.5945   22.2081   26.9868 H           1 DGX       0.0621
     79 H42        -6.8355   22.1341   25.2195 H           1 DGX       0.0255
     80 H43        -8.0736   21.8527   23.9872 H           1 DGX       0.0255
     81 H44        -7.7703   20.6335   25.2434 H           1 DGX       0.0255
@<TRIPOS>BOND
     1    11     1   1
     2     1     2   1
     3     2     3   1
     4     3     5   1
     5     3     4   1
     6     4    29   1
     7    29    36   1
     8    29    30   1
     9    30    31   1
    10    31    33   1
    11    31    32   1
    12    33    35   1
    13    33    34   1
    14    35    37   1
    15    36    35   1
    16     5     6   1
    17    11     6   1
    18     6     7   1
    19     7     8   1
    20     8     9   1
    21     9    16   1
    22     9    10   1
    23    10    12   1
    24    10    11   1
    25    11    22   1
    26    12    13   1
    27    13    15   1
    28    13    14   1
    29    15    21   1
    30    15    20   1
    31    15    16   1
    32    16    18   1
    33    16    17   1
    34    18    19   1
    35    20    19   1
    36    20    23   1
    37    23    26   2
    38    23    24   1
    39    24    25   1
    40    25    27   1
    41    27    28   2
    42    27    26   1
    43     1    38   1
    44     1    39   1
    45     2    40   1
    46     2    41   1
    47     3    42   1
    48     5    43   1
    49     5    44   1
    50     6    45   1
    51     7    46   1
    52     7    47   1
    53     8    48   1
    54     8    49   1
    55     9    50   1
    56    10    51   1
    57    12    52   1
    58    12    53   1
    59    13    54   1
    60    14    55   1
    61    17    56   1
    62    18    57   1
    63    18    58   1
    64    19    59   1
    65    19    60   1
    66    20    61   1
    67    21    62   1
    68    21    63   1
    69    21    64   1
    70    22    65   1
    71    22    66   1
    72    22    67   1
    73    24    68   1
    74    24    69   1
    75    26    70   1
    76    29    71   1
    77    30    72   1
    78    30    73   1
    79    31    74   1
    80    32    75   1
    81    33    76   1
    82    34    77   1
    83    35    78   1
    84    37    79   1
    85    37    80   1
    86    37    81   1
@<TRIPOS>SUBSTRUCTURE
     1  DGX      1

