@<TRIPOS>MOLECULE
1igj_ligand_044
    81    86
SMALL
GAST_HUCK
****
This file was generated by PARSER (from files_GN.cpp)

@<TRIPOS>ATOM
      1 C1        -11.4784   25.7501   26.6662 C.3         1 DGX      -0.0448
      2 C2        -12.1703   26.9011   25.9046 C.3         1 DGX      -0.0260
      3 C3        -11.6247   28.2873   26.3289 C.3         1 DGX       0.0620
      4 O3        -10.2548   28.4501   25.8862 O.3         1 DGX      -0.3480
      5 C4        -11.6925   28.4636   27.8663 C.3         1 DGX      -0.0232
      6 C5        -10.9973   27.2929   28.6379 C.3         1 DGX      -0.0330
      7 C6        -11.0646   27.5504   30.1753 C.3         1 DGX      -0.0493
      8 C7        -12.4788   27.3244   30.7602 C.3         1 DGX      -0.0470
      9 C8        -13.0625   25.9216   30.4032 C.3         1 DGX      -0.0079
     10 C9        -12.9968   25.6527   28.8525 C.3         1 DGX      -0.0276
     11 C10       -11.5306   25.8578   28.2391 C.3         1 DGX      -0.0258
     12 C11       -13.6594   24.2786   28.5255 C.3         1 DGX      -0.0223
     13 C12       -15.0823   24.1127   29.1313 C.3         1 DGX       0.0664
     14 O12       -15.5678   22.8287   28.7311 O.3         1 DGX      -0.3909
     15 C13       -15.1672   24.3268   30.6995 C.3         1 DGX       0.0405
     16 C14       -14.4710   25.6876   31.0740 C.3         1 DGX       0.0799
     17 O14       -14.2336   25.7647   32.4900 O.3         1 DGX      -0.3874
     18 C15       -15.5476   26.7582   30.7521 C.3         1 DGX      -0.0200
     19 C16       -16.8931   26.1089   31.1349 C.3         1 DGX      -0.0318
     20 C17       -16.6774   24.5631   31.1352 C.3         1 DGX       0.0177
     21 C18       -14.4924   23.0954   31.4062 C.3         1 DGX      -0.0516
     22 C19       -10.5255   24.7602   28.7394 C.3         1 DGX      -0.0590
     23 C20       -17.1559   23.8781   32.3599 C.2         1 DGX      -0.0063
     24 C21       -17.0561   24.3314   33.7421 C.3         1 DGX       0.1204
     25 O21       -17.6104   23.2415   34.4712 O.3         1 DGX      -0.2665
     26 C22       -17.7053   22.6599   32.3538 C.2         1 DGX       0.0017
     27 C23       -17.9838   22.2698   33.6182 C.2         1 DGX       0.2187
     28 O23       -18.5358   21.0928   33.9851 O.2         1 DGX      -0.3870
     29 C1X        -9.8239   29.7327   25.3745 C.3         1 DGX       0.1624
     30 C2X        -9.7646   29.6579   23.8257 C.3         1 DGX       0.0270
     31 C3X        -9.4023   31.0299   23.2047 C.3         1 DGX       0.0881
     32 O3X        -8.0240   31.3472   23.4121 O.3         1 DGX      -0.3890
     33 C4X       -10.3218   32.1500   23.7641 C.3         1 DGX       0.1070
     34 O4X        -9.9036   33.4210   23.2646 O.3         1 DGX      -0.3867
     35 C5X       -10.3177   32.1451   25.3215 C.3         1 DGX       0.0871
     36 O5X       -10.6437   30.8363   25.8327 O.3         1 DGX      -0.3456
     37 C6X       -11.3253   33.1546   25.9223 C.3         1 DGX      -0.0361
     38 H1        -11.9035   24.8062   26.3222 H           1 DGX       0.0271
     39 H2        -10.4361   25.7487   26.3305 H           1 DGX       0.0271
     40 H3        -13.2503   26.8620   26.0689 H           1 DGX       0.0290
     41 H4        -12.0000   26.7688   24.8336 H           1 DGX       0.0290
     42 H5        -12.2758   29.0329   25.8723 H           1 DGX       0.0597
     43 H6        -12.7440   28.5528   28.1464 H           1 DGX       0.0293
     44 H7        -11.2143   29.4112   28.1318 H           1 DGX       0.0293
     45 H8         -9.9371   27.3516   28.3735 H           1 DGX       0.0307
     46 H9        -10.7419   28.5708   30.4052 H           1 DGX       0.0268
     47 H10       -10.3704   26.8854   30.6873 H           1 DGX       0.0268
     48 H11       -13.1402   28.1121   30.3957 H           1 DGX       0.0269
     49 H12       -12.4150   27.4386   31.8455 H           1 DGX       0.0269
     50 H13       -12.4068   25.1916   30.8681 H           1 DGX       0.0332
     51 H14       -13.6446   26.3974   28.3839 H           1 DGX       0.0310
     52 H15       -13.0323   23.4592   28.8730 H           1 DGX       0.0293
     53 H16       -13.7633   24.1700   27.4450 H           1 DGX       0.0293
     54 H17       -15.7193   24.8450   28.6295 H           1 DGX       0.0602
     55 H18       -16.5441   22.8704   28.7887 H           1 DGX       0.2098
     56 H19       -15.0713   26.0627   32.8970 H           1 DGX       0.2102
     57 H20       -15.5508   27.0110   29.6878 H           1 DGX       0.0295
     58 H21       -15.3932   27.6849   31.3164 H           1 DGX       0.0295
     59 H22       -17.6562   26.4048   30.4129 H           1 DGX       0.0301
     60 H23       -17.2122   26.4932   32.1052 H           1 DGX       0.0301
     61 H24       -17.3206   24.1904   30.3319 H           1 DGX       0.0550
     62 H25       -15.0648   22.1841   31.2260 H           1 DGX       0.0239
     63 H26       -14.4226   23.2268   32.4847 H           1 DGX       0.0239
     64 H27       -13.4820   22.9283   31.0471 H           1 DGX       0.0239
     65 H28        -9.5121   24.9518   28.3788 H           1 DGX       0.0235
     66 H29       -10.8051   23.7644   28.3905 H           1 DGX       0.0235
     67 H30       -10.4688   24.7241   29.8197 H           1 DGX       0.0235
     68 H31       -17.6498   25.2263   33.9320 H           1 DGX       0.0859
     69 H32       -16.0279   24.4878   34.0636 H           1 DGX       0.0859
     70 H33       -17.8709   22.1007   31.5497 H           1 DGX       0.0295
     71 H34        -8.8108   29.8796   25.7572 H           1 DGX       0.0910
     72 H35       -10.7353   29.3428   23.4404 H           1 DGX       0.0340
     73 H36        -9.0290   28.9089   23.5212 H           1 DGX       0.0340
     74 H37        -9.5466   30.9675   22.1221 H           1 DGX       0.0621
     75 H38        -7.8092   31.0489   24.3202 H           1 DGX       0.2099
     76 H39       -11.3417   31.9701   23.4109 H           1 DGX       0.0645
     77 H40        -9.9746   33.3504   22.2897 H           1 DGX       0.2100
     78 H41        -9.3249   32.4202   25.6838 H           1 DGX       0.0621
     79 H42       -11.2997   33.1008   27.0119 H           1 DGX       0.0255
     80 H43       -12.3398   32.9308   25.5874 H           1 DGX       0.0255
     81 H44       -11.0742   34.1737   25.6237 H           1 DGX       0.0255
@<TRIPOS>BOND
     1    11     1   1
     2     1     2   1
     3     2     3   1
     4     3     5   1
     5     3     4   1
     6     4    29   1
     7    29    36   1
     8    29    30   1
     9    30    31   1
    10    31    33   1
    11    31    32   1
    12    33    35   1
    13    33    34   1
    14    35    37   1
    15    36    35   1
    16     5     6   1
    17    11     6   1
    18     6     7   1
    19     7     8   1
    20     8     9   1
    21     9    16   1
    22     9    10   1
    23    10    12   1
    24    10    11   1
    25    11    22   1
    26    12    13   1
    27    13    15   1
    28    13    14   1
    29    15    21   1
    30    15    20   1
    31    15    16   1
    32    16    18   1
    33    16    17   1
    34    18    19   1
    35    20    19   1
    36    20    23   1
    37    23    26   2
    38    23    24   1
    39    24    25   1
    40    25    27   1
    41    27    28   2
    42    27    26   1
    43     1    38   1
    44     1    39   1
    45     2    40   1
    46     2    41   1
    47     3    42   1
    48     5    43   1
    49     5    44   1
    50     6    45   1
    51     7    46   1
    52     7    47   1
    53     8    48   1
    54     8    49   1
    55     9    50   1
    56    10    51   1
    57    12    52   1
    58    12    53   1
    59    13    54   1
    60    14    55   1
    61    17    56   1
    62    18    57   1
    63    18    58   1
    64    19    59   1
    65    19    60   1
    66    20    61   1
    67    21    62   1
    68    21    63   1
    69    21    64   1
    70    22    65   1
    71    22    66   1
    72    22    67   1
    73    24    68   1
    74    24    69   1
    75    26    70   1
    76    29    71   1
    77    30    72   1
    78    30    73   1
    79    31    74   1
    80    32    75   1
    81    33    76   1
    82    34    77   1
    83    35    78   1
    84    37    79   1
    85    37    80   1
    86    37    81   1
@<TRIPOS>SUBSTRUCTURE
     1  DGX      1

