@<TRIPOS>MOLECULE
1igj_ligand_040
    81    86
SMALL
GAST_HUCK
****
This file was generated by PARSER (from files_GN.cpp)

@<TRIPOS>ATOM
      1 C1        -15.9590   28.7711   29.7596 C.3         1 DGX      -0.0448
      2 C2        -16.5478   27.6895   30.7030 C.3         1 DGX      -0.0260
      3 C3        -15.9642   27.8056   32.1348 C.3         1 DGX       0.0620
      4 O3        -16.4578   29.0181   32.7543 O.3         1 DGX      -0.3480
      5 C4        -14.4146   27.8335   32.1105 C.3         1 DGX      -0.0232
      6 C5        -13.8143   28.8953   31.1256 C.3         1 DGX      -0.0330
      7 C6        -12.2561   28.8570   31.1625 C.3         1 DGX      -0.0493
      8 C7        -11.6687   27.6084   30.4635 C.3         1 DGX      -0.0470
      9 C8        -12.2046   27.4079   29.0077 C.3         1 DGX      -0.0079
     10 C9        -13.7778   27.4941   28.9416 C.3         1 DGX      -0.0276
     11 C10       -14.3831   28.7903   29.6488 C.3         1 DGX      -0.0258
     12 C11       -14.2421   27.2664   27.4680 C.3         1 DGX      -0.0223
     13 C12       -13.6954   25.9426   26.8690 C.3         1 DGX       0.0664
     14 O12       -14.2613   25.7963   25.5601 O.3         1 DGX      -0.3909
     15 C13       -12.1154   25.8257   26.8708 C.3         1 DGX       0.0405
     16 C14       -11.5922   26.1193   28.3249 C.3         1 DGX       0.0799
     17 O14       -10.1682   26.3089   28.3182 O.3         1 DGX      -0.3874
     18 C15       -11.8252   24.7800   29.0838 C.3         1 DGX      -0.0200
     19 C16       -11.7592   23.6465   28.0366 C.3         1 DGX      -0.0318
     20 C17       -11.6925   24.3198   26.6299 C.3         1 DGX       0.0177
     21 C18       -11.5449   26.8121   25.7921 C.3         1 DGX      -0.0516
     22 C19       -14.0375   30.0987   28.8432 C.3         1 DGX      -0.0590
     23 C20       -10.4142   24.0248   25.9359 C.2         1 DGX      -0.0063
     24 C21        -9.0790   24.4774   26.3041 C.3         1 DGX       0.1204
     25 O21        -8.2458   23.7800   25.3864 O.3         1 DGX      -0.2665
     26 C22       -10.3027   23.1648   24.9164 C.2         1 DGX       0.0017
     27 C23        -9.0026   23.0253   24.5705 C.2         1 DGX       0.2187
     28 O23        -8.5181   22.2421   23.5837 O.2         1 DGX      -0.3870
     29 C1X       -17.5220   28.9058   33.7206 C.3         1 DGX       0.1624
     30 C2X       -16.9258   28.6483   35.1308 C.3         1 DGX       0.0270
     31 C3X       -18.0205   28.7441   36.2275 C.3         1 DGX       0.0881
     32 O3X       -18.8778   27.6029   36.1620 O.3         1 DGX      -0.3890
     33 C4X       -18.8468   30.0537   36.0835 C.3         1 DGX       0.1070
     34 O4X       -19.9401   30.0540   37.0019 O.3         1 DGX      -0.3867
     35 C5X       -19.3424   30.2443   34.6176 C.3         1 DGX       0.0871
     36 O5X       -18.2269   30.1620   33.7003 O.3         1 DGX      -0.3456
     37 C6X       -20.0359   31.6083   34.3936 C.3         1 DGX      -0.0361
     38 H1        -16.4162   28.6577   28.7764 H           1 DGX       0.0271
     39 H2        -16.3061   29.7408   30.1376 H           1 DGX       0.0271
     40 H3        -16.3502   26.6963   30.2986 H           1 DGX       0.0290
     41 H4        -17.6331   27.8093   30.7486 H           1 DGX       0.0290
     42 H5        -16.2604   26.9127   32.7004 H           1 DGX       0.0597
     43 H6        -14.0693   26.8331   31.8503 H           1 DGX       0.0293
     44 H7        -14.0609   28.0388   33.1242 H           1 DGX       0.0293
     45 H8        -14.1044   29.8725   31.5331 H           1 DGX       0.0307
     46 H9        -11.9090   28.8785   32.1988 H           1 DGX       0.0268
     47 H10       -11.8555   29.7527   30.6819 H           1 DGX       0.0268
     48 H11       -11.8867   26.7277   31.0677 H           1 DGX       0.0269
     49 H12       -10.5805   27.7175   30.4433 H           1 DGX       0.0269
     50 H13       -11.8192   28.2518   28.4310 H           1 DGX       0.0332
     51 H14       -14.1532   26.6368   29.4960 H           1 DGX       0.0310
     52 H15       -13.9464   28.1030   26.8345 H           1 DGX       0.0293
     53 H16       -15.3316   27.2086   27.4346 H           1 DGX       0.0293
     54 H17       -14.1337   25.1356   27.4691 H           1 DGX       0.0602
     55 H18       -14.6396   24.8871   25.5368 H           1 DGX       0.2098
     56 H19       -10.0090   27.1859   27.9108 H           1 DGX       0.2102
     57 H20       -12.8029   24.7637   29.5693 H           1 DGX       0.0295
     58 H21       -11.0736   24.6284   29.8616 H           1 DGX       0.0295
     59 H22       -12.6569   23.0253   28.1173 H           1 DGX       0.0301
     60 H23       -10.9073   22.9914   28.2415 H           1 DGX       0.0301
     61 H24       -12.4825   23.8487   26.0299 H           1 DGX       0.0550
     62 H25       -11.9221   26.5463   24.8071 H           1 DGX       0.0239
     63 H26       -10.4577   26.7988   25.7404 H           1 DGX       0.0239
     64 H27       -11.8352   27.8393   26.0003 H           1 DGX       0.0239
     65 H28       -14.3394   30.9902   29.3975 H           1 DGX       0.0235
     66 H29       -14.5628   30.1205   27.8875 H           1 DGX       0.0235
     67 H30       -12.9749   30.1939   28.6354 H           1 DGX       0.0235
     68 H31        -8.8270   24.2012   27.3270 H           1 DGX       0.0859
     69 H32        -8.9205   25.5452   26.1532 H           1 DGX       0.0859
     70 H33       -11.0445   22.6554   24.4941 H           1 DGX       0.0295
     71 H34       -18.2242   28.1101   33.4485 H           1 DGX       0.0910
     72 H35       -16.1543   29.3966   35.3334 H           1 DGX       0.0340
     73 H36       -16.4541   27.6627   35.1621 H           1 DGX       0.0340
     74 H37       -17.5399   28.7367   37.2107 H           1 DGX       0.0621
     75 H38       -18.3116   26.8390   36.4077 H           1 DGX       0.2099
     76 H39       -18.2008   30.8955   36.3469 H           1 DGX       0.0645
     77 H40       -20.5091   29.3018   36.7351 H           1 DGX       0.2100
     78 H41       -20.0711   29.4615   34.3762 H           1 DGX       0.0621
     79 H42       -20.3595   31.6915   33.3541 H           1 DGX       0.0255
     80 H43       -19.3482   32.4271   34.6112 H           1 DGX       0.0255
     81 H44       -20.9132   31.7011   35.0356 H           1 DGX       0.0255
@<TRIPOS>BOND
     1    11     1   1
     2     1     2   1
     3     2     3   1
     4     3     5   1
     5     3     4   1
     6     4    29   1
     7    29    36   1
     8    29    30   1
     9    30    31   1
    10    31    33   1
    11    31    32   1
    12    33    35   1
    13    33    34   1
    14    35    37   1
    15    36    35   1
    16     5     6   1
    17    11     6   1
    18     6     7   1
    19     7     8   1
    20     8     9   1
    21     9    16   1
    22     9    10   1
    23    10    12   1
    24    10    11   1
    25    11    22   1
    26    12    13   1
    27    13    15   1
    28    13    14   1
    29    15    21   1
    30    15    20   1
    31    15    16   1
    32    16    18   1
    33    16    17   1
    34    18    19   1
    35    20    19   1
    36    20    23   1
    37    23    26   2
    38    23    24   1
    39    24    25   1
    40    25    27   1
    41    27    28   2
    42    27    26   1
    43     1    38   1
    44     1    39   1
    45     2    40   1
    46     2    41   1
    47     3    42   1
    48     5    43   1
    49     5    44   1
    50     6    45   1
    51     7    46   1
    52     7    47   1
    53     8    48   1
    54     8    49   1
    55     9    50   1
    56    10    51   1
    57    12    52   1
    58    12    53   1
    59    13    54   1
    60    14    55   1
    61    17    56   1
    62    18    57   1
    63    18    58   1
    64    19    59   1
    65    19    60   1
    66    20    61   1
    67    21    62   1
    68    21    63   1
    69    21    64   1
    70    22    65   1
    71    22    66   1
    72    22    67   1
    73    24    68   1
    74    24    69   1
    75    26    70   1
    76    29    71   1
    77    30    72   1
    78    30    73   1
    79    31    74   1
    80    32    75   1
    81    33    76   1
    82    34    77   1
    83    35    78   1
    84    37    79   1
    85    37    80   1
    86    37    81   1
@<TRIPOS>SUBSTRUCTURE
     1  DGX      1

