@<TRIPOS>MOLECULE
1igj_ligand_031
    81    86
SMALL
GAST_HUCK
****
This file was generated by PARSER (from files_GN.cpp)

@<TRIPOS>ATOM
      1 C1        -14.5665   28.0344   28.1398 C.3         1 DGX      -0.0448
      2 C2        -15.5901   29.1918   28.2952 C.3         1 DGX      -0.0260
      3 C3        -14.9511   30.4221   28.9928 C.3         1 DGX       0.0620
      4 O3        -13.9897   31.0072   28.0773 O.3         1 DGX      -0.3480
      5 C4        -14.3674   29.9731   30.3589 C.3         1 DGX      -0.0232
      6 C5        -13.3145   28.8182   30.2152 C.3         1 DGX      -0.0330
      7 C6        -12.6721   28.4808   31.5923 C.3         1 DGX      -0.0493
      8 C7        -13.6589   27.7596   32.5372 C.3         1 DGX      -0.0470
      9 C8        -14.3062   26.4898   31.8950 C.3         1 DGX      -0.0079
     10 C9        -14.8938   26.7737   30.4606 C.3         1 DGX      -0.0276
     11 C10       -13.8901   27.5355   29.4814 C.3         1 DGX      -0.0258
     12 C11       -15.5005   25.4506   29.8972 C.3         1 DGX      -0.0223
     13 C12       -16.5793   24.8507   30.8400 C.3         1 DGX       0.0664
     14 O12       -17.1278   23.7013   30.1883 O.3         1 DGX      -0.3909
     15 C13       -16.0682   24.5339   32.3072 C.3         1 DGX       0.0405
     16 C14       -15.3224   25.7958   32.8860 C.3         1 DGX       0.0799
     17 O14       -14.5412   25.4102   34.0283 O.3         1 DGX      -0.3874
     18 C15       -16.4636   26.7194   33.3977 C.3         1 DGX      -0.0200
     19 C16       -17.6511   25.8071   33.7595 C.3         1 DGX      -0.0318
     20 C17       -17.3135   24.3600   33.2795 C.3         1 DGX       0.0177
     21 C18       -15.1168   23.2816   32.2508 C.3         1 DGX      -0.0516
     22 C19       -12.7062   26.5949   29.0375 C.3         1 DGX      -0.0590
     23 C20       -17.2294   23.3415   34.3530 C.2         1 DGX      -0.0063
     24 C21       -16.6290   23.4519   35.6761 C.3         1 DGX       0.1204
     25 O21       -16.8735   22.1682   36.2475 O.3         1 DGX      -0.2665
     26 C22       -17.7893   22.1307   34.2495 C.2         1 DGX       0.0017
     27 C23       -17.5632   21.4140   35.3728 C.2         1 DGX       0.2187
     28 O23       -17.9662   20.1446   35.5969 O.2         1 DGX      -0.3870
     29 C1X       -13.2714   32.2289   28.3623 C.3         1 DGX       0.1624
     30 C2X       -14.0882   33.2908   29.1571 C.3         1 DGX       0.0270
     31 C3X       -13.2139   34.5282   29.4935 C.3         1 DGX       0.0881
     32 O3X       -12.9366   35.2791   28.3085 O.3         1 DGX      -0.3890
     33 C4X       -11.8904   34.0930   30.1817 C.3         1 DGX       0.1070
     34 O4X       -11.0757   35.2479   30.4012 O.3         1 DGX      -0.3867
     35 C5X       -11.1516   33.0208   29.3201 C.3         1 DGX       0.0871
     36 O5X       -12.0262   31.9089   29.0150 O.3         1 DGX      -0.3456
     37 C6X        -9.9271   32.4161   30.0450 C.3         1 DGX      -0.0361
     38 H1        -15.0579   27.2111   27.6230 H           1 DGX       0.0271
     39 H2        -13.7900   28.3947   27.4549 H           1 DGX       0.0271
     40 H3        -16.4581   28.8475   28.8636 H           1 DGX       0.0290
     41 H4        -15.9517   29.4905   27.3077 H           1 DGX       0.0290
     42 H5        -15.7529   31.1442   29.1742 H           1 DGX       0.0597
     43 H6        -15.1992   29.6628   30.9916 H           1 DGX       0.0293
     44 H7        -13.9220   30.8338   30.8591 H           1 DGX       0.0293
     45 H8        -12.5039   29.2261   29.6012 H           1 DGX       0.0307
     46 H9        -12.3185   29.3953   32.0756 H           1 DGX       0.0268
     47 H10       -11.7943   27.8509   31.4412 H           1 DGX       0.0268
     48 H11       -14.4317   28.4692   32.8380 H           1 DGX       0.0269
     49 H12       -13.1181   27.4793   33.4442 H           1 DGX       0.0269
     50 H13       -13.4897   25.7793   31.7580 H           1 DGX       0.0332
     51 H14       -15.7435   27.4392   30.5989 H           1 DGX       0.0310
     52 H15       -14.7157   24.7121   29.7199 H           1 DGX       0.0293
     53 H16       -15.9790   25.6483   28.9372 H           1 DGX       0.0293
     54 H17       -17.3902   25.5838   30.8840 H           1 DGX       0.0602
     55 H18       -18.0104   23.5604   30.5891 H           1 DGX       0.2098
     56 H19       -15.0789   25.6251   34.8142 H           1 DGX       0.2102
     57 H20       -16.7827   27.4240   32.6277 H           1 DGX       0.0295
     58 H21       -16.1468   27.3041   34.2670 H           1 DGX       0.0295
     59 H22       -18.5516   26.1703   33.2527 H           1 DGX       0.0301
     60 H23       -17.8530   25.8839   34.8271 H           1 DGX       0.0301
     61 H24       -18.1820   24.0447   32.6893 H           1 DGX       0.0550
     62 H25       -15.6328   22.4186   31.8283 H           1 DGX       0.0239
     63 H26       -14.7615   23.0016   33.2436 H           1 DGX       0.0239
     64 H27       -14.2351   23.4733   31.6405 H           1 DGX       0.0239
     65 H28       -11.9491   27.1531   28.4813 H           1 DGX       0.0235
     66 H29       -13.0646   25.7990   28.3836 H           1 DGX       0.0235
     67 H30       -12.2063   26.1252   29.8829 H           1 DGX       0.0235
     68 H31       -17.1185   24.2064   36.2936 H           1 DGX       0.0859
     69 H32       -15.5558   23.6349   35.6327 H           1 DGX       0.0859
     70 H33       -18.3007   21.7935   33.4690 H           1 DGX       0.0295
     71 H34       -13.0325   32.6522   27.3817 H           1 DGX       0.0910
     72 H35       -14.4406   32.8612   30.0980 H           1 DGX       0.0340
     73 H36       -14.9628   33.5956   28.5742 H           1 DGX       0.0340
     74 H37       -13.7687   35.1778   30.1780 H           1 DGX       0.0621
     75 H38       -13.8040   35.6393   28.0202 H           1 DGX       0.2099
     76 H39       -12.1369   33.6613   31.1584 H           1 DGX       0.0645
     77 H40       -10.4283   34.9815   31.0855 H           1 DGX       0.2100
     78 H41       -10.8060   33.4780   28.3841 H           1 DGX       0.0621
     79 H42        -9.4555   31.6663   29.4050 H           1 DGX       0.0255
     80 H43       -10.2361   31.9357   30.9771 H           1 DGX       0.0255
     81 H44        -9.1903   33.1899   30.2703 H           1 DGX       0.0255
@<TRIPOS>BOND
     1    11     1   1
     2     1     2   1
     3     2     3   1
     4     3     5   1
     5     3     4   1
     6     4    29   1
     7    29    36   1
     8    29    30   1
     9    30    31   1
    10    31    33   1
    11    31    32   1
    12    33    35   1
    13    33    34   1
    14    35    37   1
    15    36    35   1
    16     5     6   1
    17    11     6   1
    18     6     7   1
    19     7     8   1
    20     8     9   1
    21     9    16   1
    22     9    10   1
    23    10    12   1
    24    10    11   1
    25    11    22   1
    26    12    13   1
    27    13    15   1
    28    13    14   1
    29    15    21   1
    30    15    20   1
    31    15    16   1
    32    16    18   1
    33    16    17   1
    34    18    19   1
    35    20    19   1
    36    20    23   1
    37    23    26   2
    38    23    24   1
    39    24    25   1
    40    25    27   1
    41    27    28   2
    42    27    26   1
    43     1    38   1
    44     1    39   1
    45     2    40   1
    46     2    41   1
    47     3    42   1
    48     5    43   1
    49     5    44   1
    50     6    45   1
    51     7    46   1
    52     7    47   1
    53     8    48   1
    54     8    49   1
    55     9    50   1
    56    10    51   1
    57    12    52   1
    58    12    53   1
    59    13    54   1
    60    14    55   1
    61    17    56   1
    62    18    57   1
    63    18    58   1
    64    19    59   1
    65    19    60   1
    66    20    61   1
    67    21    62   1
    68    21    63   1
    69    21    64   1
    70    22    65   1
    71    22    66   1
    72    22    67   1
    73    24    68   1
    74    24    69   1
    75    26    70   1
    76    29    71   1
    77    30    72   1
    78    30    73   1
    79    31    74   1
    80    32    75   1
    81    33    76   1
    82    34    77   1
    83    35    78   1
    84    37    79   1
    85    37    80   1
    86    37    81   1
@<TRIPOS>SUBSTRUCTURE
     1  DGX      1

