@<TRIPOS>MOLECULE
1igj_ligand_068
    81    86
SMALL
GAST_HUCK
****
This file was generated by PARSER (from files_GN.cpp)

@<TRIPOS>ATOM
      1 C1        -12.3755   29.9000   29.1464 C.3         1 DGX      -0.0448
      2 C2        -13.5054   29.1653   28.3808 C.3         1 DGX      -0.0260
      3 C3        -12.9940   27.8827   27.6786 C.3         1 DGX       0.0620
      4 O3        -12.5978   26.8864   28.6480 O.3         1 DGX      -0.3480
      5 C4        -11.7518   28.1901   26.8074 C.3         1 DGX      -0.0232
      6 C5        -10.6102   28.9369   27.5802 C.3         1 DGX      -0.0330
      7 C6         -9.3827   29.1768   26.6506 C.3         1 DGX      -0.0493
      8 C7         -9.6448   30.2652   25.5831 C.3         1 DGX      -0.0470
      9 C8        -10.1633   31.6098   26.1854 C.3         1 DGX      -0.0079
     10 C9        -11.3561   31.3968   27.1931 C.3         1 DGX      -0.0276
     11 C10       -11.0943   30.2672   28.2928 C.3         1 DGX      -0.0258
     12 C11       -11.7877   32.7879   27.7599 C.3         1 DGX      -0.0223
     13 C12       -12.1295   33.8177   26.6492 C.3         1 DGX       0.0664
     14 O12       -12.5541   35.0226   27.2949 O.3         1 DGX      -0.3909
     15 C13       -10.9716   34.0748   25.5957 C.3         1 DGX       0.0405
     16 C14       -10.4345   32.6916   25.0641 C.3         1 DGX       0.0799
     17 O14        -9.1834   32.8688   24.3791 O.3         1 DGX      -0.3874
     18 C15       -11.4676   32.2953   23.9750 C.3         1 DGX      -0.0200
     19 C16       -11.8591   33.6137   23.2830 C.3         1 DGX      -0.0318
     20 C17       -11.5755   34.7651   24.2966 C.3         1 DGX       0.0177
     21 C18        -9.8432   34.9179   26.2958 C.3         1 DGX      -0.0516
     22 C19       -10.0174   30.7311   29.3438 C.3         1 DGX      -0.0590
     23 C20       -10.8547   35.9201   23.7127 C.2         1 DGX      -0.0063
     24 C21        -9.6853   35.9052   22.8425 C.3         1 DGX       0.1204
     25 O21        -9.4107   37.2930   22.6615 O.3         1 DGX      -0.2665
     26 C22       -11.1794   37.1933   23.9638 C.2         1 DGX       0.0017
     27 C23       -10.3184   38.0239   23.3354 C.2         1 DGX       0.2187
     28 O23       -10.3508   39.3735   23.3736 O.2         1 DGX      -0.3870
     29 C1X       -13.3132   25.6381   28.7040 C.3         1 DGX       0.1624
     30 C2X       -12.3347   24.5706   29.2548 C.3         1 DGX       0.0270
     31 C3X       -13.0712   23.2328   29.5222 C.3         1 DGX       0.0881
     32 O3X       -13.4530   22.6243   28.2869 O.3         1 DGX      -0.3890
     33 C4X       -14.3207   23.4641   30.4150 C.3         1 DGX       0.1070
     34 O4X       -15.0623   22.2485   30.5432 O.3         1 DGX      -0.3867
     35 C5X       -15.2166   24.5999   29.8305 C.3         1 DGX       0.0871
     36 O5X       -14.4440   25.7985   29.5865 O.3         1 DGX      -0.3456
     37 C6X       -16.3717   24.9746   30.7891 C.3         1 DGX      -0.0361
     38 H1        -12.8004   30.7901   29.6123 H           1 DGX       0.0271
     39 H2        -12.0835   29.2417   29.9720 H           1 DGX       0.0271
     40 H3        -13.9466   29.8387   27.6436 H           1 DGX       0.0290
     41 H4        -14.2973   28.8926   29.0837 H           1 DGX       0.0290
     42 H5        -13.7927   27.5240   27.0175 H           1 DGX       0.0597
     43 H6        -12.0798   28.7826   25.9576 H           1 DGX       0.0293
     44 H7        -11.3682   27.2465   26.4091 H           1 DGX       0.0293
     45 H8        -10.2707   28.2383   28.3531 H           1 DGX       0.0307
     46 H9         -9.1091   28.2446   26.1474 H           1 DGX       0.0268
     47 H10        -8.5174   29.4702   27.2497 H           1 DGX       0.0268
     48 H11       -10.3581   29.8794   24.8543 H           1 DGX       0.0269
     49 H12        -8.7049   30.4383   25.0513 H           1 DGX       0.0269
     50 H13        -9.3339   32.0039   26.7717 H           1 DGX       0.0332
     51 H14       -12.1976   31.0493   26.5989 H           1 DGX       0.0310
     52 H15       -11.0029   33.1968   28.3974 H           1 DGX       0.0293
     53 H16       -12.6795   32.6732   28.3779 H           1 DGX       0.0293
     54 H17       -13.0138   33.4314   26.1338 H           1 DGX       0.0602
     55 H18       -12.8731   35.6137   26.5822 H           1 DGX       0.2098
     56 H19        -9.3618   33.4421   23.6079 H           1 DGX       0.2102
     57 H20       -12.3555   31.8467   24.4170 H           1 DGX       0.0295
     58 H21       -11.0568   31.5842   23.2515 H           1 DGX       0.0295
     59 H22       -12.9146   33.5859   22.9935 H           1 DGX       0.0301
     60 H23       -11.2747   33.7062   22.3671 H           1 DGX       0.0301
     61 H24       -12.5684   35.1534   24.5514 H           1 DGX       0.0550
     62 H25       -10.2296   35.8845   26.6229 H           1 DGX       0.0239
     63 H26        -9.0097   35.1128   25.6252 H           1 DGX       0.0239
     64 H27        -9.4368   34.4035   27.1657 H           1 DGX       0.0239
     65 H28        -9.7420   29.9109   30.0111 H           1 DGX       0.0235
     66 H29       -10.3991   31.5403   29.9692 H           1 DGX       0.0235
     67 H30        -9.1037   31.0836   28.8719 H           1 DGX       0.0235
     68 H31        -9.8928   35.4570   21.8704 H           1 DGX       0.0859
     69 H32        -8.8236   35.4212   23.3012 H           1 DGX       0.0859
     70 H33       -11.9238   37.4996   24.5450 H           1 DGX       0.0295
     71 H34       -13.6456   25.3242   27.7073 H           1 DGX       0.0910
     72 H35       -11.8974   24.9355   30.1875 H           1 DGX       0.0340
     73 H36       -11.5222   24.4090   28.5407 H           1 DGX       0.0340
     74 H37       -12.3902   22.5455   30.0310 H           1 DGX       0.0621
     75 H38       -12.6134   22.4585   27.8072 H           1 DGX       0.2099
     76 H39       -13.9837   23.7581   31.4140 H           1 DGX       0.0645
     77 H40       -14.4626   21.6146   30.9941 H           1 DGX       0.2100
     78 H41       -15.6594   24.2622   28.8877 H           1 DGX       0.0621
     79 H42       -16.9604   25.7888   30.3640 H           1 DGX       0.0255
     80 H43       -15.9783   25.3013   31.7540 H           1 DGX       0.0255
     81 H44       -17.0308   24.1186   30.9479 H           1 DGX       0.0255
@<TRIPOS>BOND
     1    11     1   1
     2     1     2   1
     3     2     3   1
     4     3     5   1
     5     3     4   1
     6     4    29   1
     7    29    36   1
     8    29    30   1
     9    30    31   1
    10    31    33   1
    11    31    32   1
    12    33    35   1
    13    33    34   1
    14    35    37   1
    15    36    35   1
    16     5     6   1
    17    11     6   1
    18     6     7   1
    19     7     8   1
    20     8     9   1
    21     9    16   1
    22     9    10   1
    23    10    12   1
    24    10    11   1
    25    11    22   1
    26    12    13   1
    27    13    15   1
    28    13    14   1
    29    15    21   1
    30    15    20   1
    31    15    16   1
    32    16    18   1
    33    16    17   1
    34    18    19   1
    35    20    19   1
    36    20    23   1
    37    23    26   2
    38    23    24   1
    39    24    25   1
    40    25    27   1
    41    27    28   2
    42    27    26   1
    43     1    38   1
    44     1    39   1
    45     2    40   1
    46     2    41   1
    47     3    42   1
    48     5    43   1
    49     5    44   1
    50     6    45   1
    51     7    46   1
    52     7    47   1
    53     8    48   1
    54     8    49   1
    55     9    50   1
    56    10    51   1
    57    12    52   1
    58    12    53   1
    59    13    54   1
    60    14    55   1
    61    17    56   1
    62    18    57   1
    63    18    58   1
    64    19    59   1
    65    19    60   1
    66    20    61   1
    67    21    62   1
    68    21    63   1
    69    21    64   1
    70    22    65   1
    71    22    66   1
    72    22    67   1
    73    24    68   1
    74    24    69   1
    75    26    70   1
    76    29    71   1
    77    30    72   1
    78    30    73   1
    79    31    74   1
    80    32    75   1
    81    33    76   1
    82    34    77   1
    83    35    78   1
    84    37    79   1
    85    37    80   1
    86    37    81   1
@<TRIPOS>SUBSTRUCTURE
     1  DGX      1

