@<TRIPOS>MOLECULE
1igj_ligand_007
    81    86
SMALL
GAST_HUCK
****
This file was generated by PARSER (from files_GN.cpp)

@<TRIPOS>ATOM
      1 C1        -15.2616   29.1161   31.3090 C.3         1 DGX      -0.0448
      2 C2        -15.7310   28.1206   30.2134 C.3         1 DGX      -0.0260
      3 C3        -14.9208   26.8046   30.2645 C.3         1 DGX       0.0620
      4 O3        -15.1752   26.1403   31.5278 O.3         1 DGX      -0.3480
      5 C4        -13.4065   27.1134   30.1426 C.3         1 DGX      -0.0232
      6 C5        -12.9089   28.1202   31.2368 C.3         1 DGX      -0.0330
      7 C6        -11.3717   28.3553   31.1026 C.3         1 DGX      -0.0493
      8 C7        -10.9933   29.2576   29.9129 C.3         1 DGX      -0.0470
      9 C8        -11.7555   30.6222   29.9124 C.3         1 DGX      -0.0079
     10 C9        -13.3130   30.3951   30.0310 C.3         1 DGX      -0.0276
     11 C10       -13.7221   29.4835   31.2765 C.3         1 DGX      -0.0258
     12 C11       -14.0472   31.7721   29.9510 C.3         1 DGX      -0.0223
     13 C12       -13.6465   32.6015   28.6942 C.3         1 DGX       0.0664
     14 O12       -14.4244   33.8000   28.6918 O.3         1 DGX      -0.3909
     15 C13       -12.1027   32.8999   28.5406 C.3         1 DGX       0.0405
     16 C14       -11.2934   31.5501   28.7193 C.3         1 DGX       0.0799
     17 O14        -9.9043   31.8710   28.9318 O.3         1 DGX      -0.3874
     18 C15       -11.3538   30.8906   27.3149 C.3         1 DGX      -0.0200
     19 C16       -11.1453   32.0622   26.3466 C.3         1 DGX      -0.0318
     20 C17       -11.7639   33.3176   27.0273 C.3         1 DGX       0.0177
     21 C18       -11.7228   33.9749   29.6316 C.3         1 DGX      -0.0516
     22 C19       -13.4437   30.2150   32.6462 C.3         1 DGX      -0.0590
     23 C20       -10.9986   34.5183   26.6954 C.2         1 DGX      -0.0063
     24 C21       -11.3995   35.4907   25.6700 C.3         1 DGX       0.1204
     25 O21       -10.2859   36.3750   25.6067 O.3         1 DGX      -0.2665
     26 C22        -9.7604   34.8635   27.1285 C.2         1 DGX       0.0017
     27 C23        -9.3558   35.9899   26.5217 C.2         1 DGX       0.2187
     28 O23        -8.1336   36.5648   26.6555 O.2         1 DGX      -0.3870
     29 C1X       -15.7759   24.8371   31.5534 C.3         1 DGX       0.1624
     30 C2X       -17.2726   24.8956   31.1365 C.3         1 DGX       0.0270
     31 C3X       -17.8972   23.4974   31.0086 C.3         1 DGX       0.0881
     32 O3X       -18.1709   22.9588   32.3000 O.3         1 DGX      -0.3890
     33 C4X       -16.9948   22.5398   30.1754 C.3         1 DGX       0.1070
     34 O4X       -17.5349   21.2257   30.2334 O.3         1 DGX      -0.3867
     35 C5X       -15.5359   22.5524   30.7195 C.3         1 DGX       0.0871
     36 O5X       -15.0177   23.8965   30.7546 O.3         1 DGX      -0.3456
     37 C6X       -14.5873   21.6725   29.8677 C.3         1 DGX      -0.0361
     38 H1        -15.8783   30.0062   31.2411 H           1 DGX       0.0271
     39 H2        -15.5082   28.6578   32.2679 H           1 DGX       0.0271
     40 H3        -15.6456   28.5751   29.2195 H           1 DGX       0.0290
     41 H4        -16.7866   27.8787   30.3616 H           1 DGX       0.0290
     42 H5        -15.2073   26.1907   29.4051 H           1 DGX       0.0597
     43 H6        -13.2170   27.5150   29.1444 H           1 DGX       0.0293
     44 H7        -12.8488   26.1784   30.2221 H           1 DGX       0.0293
     45 H8        -13.0468   27.6029   32.1914 H           1 DGX       0.0307
     46 H9        -10.8642   27.3945   30.9893 H           1 DGX       0.0268
     47 H10       -11.0028   28.8094   32.0260 H           1 DGX       0.0268
     48 H11       -11.2000   28.7087   28.9950 H           1 DGX       0.0269
     49 H12        -9.9148   29.4228   29.9553 H           1 DGX       0.0269
     50 H13       -11.4414   31.1534   30.8118 H           1 DGX       0.0332
     51 H14       -13.6134   29.8577   29.1270 H           1 DGX       0.0310
     52 H15       -13.8516   32.3585   30.8495 H           1 DGX       0.0293
     53 H16       -15.1270   31.6141   29.8990 H           1 DGX       0.0293
     54 H17       -14.0037   32.0273   27.8333 H           1 DGX       0.0602
     55 H18       -14.3549   34.1632   27.7852 H           1 DGX       0.2098
     56 H19        -9.3948   31.0436   28.8016 H           1 DGX       0.2102
     57 H20       -12.3255   30.4255   27.1344 H           1 DGX       0.0295
     58 H21       -10.5774   30.1329   27.1673 H           1 DGX       0.0295
     59 H22       -11.6218   31.8381   25.3875 H           1 DGX       0.0301
     60 H23       -10.0722   32.1985   26.1622 H           1 DGX       0.0301
     61 H24       -12.7219   33.4545   26.5265 H           1 DGX       0.0550
     62 H25       -12.1709   34.9376   29.3839 H           1 DGX       0.0239
     63 H26       -10.6482   34.1142   29.7034 H           1 DGX       0.0239
     64 H27       -12.0654   33.6997   30.6340 H           1 DGX       0.0239
     65 H28       -13.6207   29.5479   33.4887 H           1 DGX       0.0235
     66 H29       -14.0919   31.0824   32.7789 H           1 DGX       0.0235
     67 H30       -12.4163   30.5601   32.7271 H           1 DGX       0.0235
     68 H31       -12.3119   36.0332   25.9445 H           1 DGX       0.0859
     69 H32       -11.5586   34.9947   24.7039 H           1 DGX       0.0859
     70 H33        -9.1852   34.3534   27.7626 H           1 DGX       0.0295
     71 H34       -15.7355   24.5032   32.5948 H           1 DGX       0.0910
     72 H35       -17.3540   25.3969   30.1716 H           1 DGX       0.0340
     73 H36       -17.8416   25.4794   31.8681 H           1 DGX       0.0340
     74 H37       -18.8610   23.6011   30.5054 H           1 DGX       0.0621
     75 H38       -18.8257   22.2491   32.1217 H           1 DGX       0.2099
     76 H39       -16.9909   22.8756   29.1331 H           1 DGX       0.0645
     77 H40       -18.4936   21.3370   30.0706 H           1 DGX       0.2100
     78 H41       -15.5332   22.1396   31.7305 H           1 DGX       0.0621
     79 H42       -13.5797   21.6878   30.2910 H           1 DGX       0.0255
     80 H43       -14.5418   22.0478   28.8432 H           1 DGX       0.0255
     81 H44       -14.9342   20.6379   29.8485 H           1 DGX       0.0255
@<TRIPOS>BOND
     1    11     1   1
     2     1     2   1
     3     2     3   1
     4     3     5   1
     5     3     4   1
     6     4    29   1
     7    29    36   1
     8    29    30   1
     9    30    31   1
    10    31    33   1
    11    31    32   1
    12    33    35   1
    13    33    34   1
    14    35    37   1
    15    36    35   1
    16     5     6   1
    17    11     6   1
    18     6     7   1
    19     7     8   1
    20     8     9   1
    21     9    16   1
    22     9    10   1
    23    10    12   1
    24    10    11   1
    25    11    22   1
    26    12    13   1
    27    13    15   1
    28    13    14   1
    29    15    21   1
    30    15    20   1
    31    15    16   1
    32    16    18   1
    33    16    17   1
    34    18    19   1
    35    20    19   1
    36    20    23   1
    37    23    26   2
    38    23    24   1
    39    24    25   1
    40    25    27   1
    41    27    28   2
    42    27    26   1
    43     1    38   1
    44     1    39   1
    45     2    40   1
    46     2    41   1
    47     3    42   1
    48     5    43   1
    49     5    44   1
    50     6    45   1
    51     7    46   1
    52     7    47   1
    53     8    48   1
    54     8    49   1
    55     9    50   1
    56    10    51   1
    57    12    52   1
    58    12    53   1
    59    13    54   1
    60    14    55   1
    61    17    56   1
    62    18    57   1
    63    18    58   1
    64    19    59   1
    65    19    60   1
    66    20    61   1
    67    21    62   1
    68    21    63   1
    69    21    64   1
    70    22    65   1
    71    22    66   1
    72    22    67   1
    73    24    68   1
    74    24    69   1
    75    26    70   1
    76    29    71   1
    77    30    72   1
    78    30    73   1
    79    31    74   1
    80    32    75   1
    81    33    76   1
    82    34    77   1
    83    35    78   1
    84    37    79   1
    85    37    80   1
    86    37    81   1
@<TRIPOS>SUBSTRUCTURE
     1  DGX      1

