@<TRIPOS>MOLECULE
1igj_ligand_070
    81    86
SMALL
GAST_HUCK
****
This file was generated by PARSER (from files_GN.cpp)

@<TRIPOS>ATOM
      1 C1        -12.1945   28.1370   28.3436 C.3         1 DGX      -0.0448
      2 C2        -13.1122   29.2057   27.7052 C.3         1 DGX      -0.0260
      3 C3        -12.8419   30.6033   28.3282 C.3         1 DGX       0.0620
      4 O3        -11.4854   31.0759   28.1184 O.3         1 DGX      -0.3480
      5 C4        -13.0989   30.5092   29.8586 C.3         1 DGX      -0.0232
      6 C5        -12.2889   29.3698   30.5747 C.3         1 DGX      -0.0330
      7 C6        -12.6155   29.3194   32.0998 C.3         1 DGX      -0.0493
      8 C7        -13.9870   28.6724   32.4140 C.3         1 DGX      -0.0470
      9 C8        -14.1765   27.2595   31.7720 C.3         1 DGX      -0.0079
     10 C9        -13.8328   27.2880   30.2376 C.3         1 DGX      -0.0276
     11 C10       -12.4168   27.9421   29.8917 C.3         1 DGX      -0.0258
     12 C11       -14.0695   25.8696   29.6217 C.3         1 DGX      -0.0223
     13 C12       -15.4993   25.3287   29.8838 C.3         1 DGX       0.0664
     14 O12       -15.6381   24.0526   29.2487 O.3         1 DGX      -0.3909
     15 C13       -15.9031   25.2542   31.4124 C.3         1 DGX       0.0405
     16 C14       -15.5930   26.6376   32.1048 C.3         1 DGX       0.0799
     17 O14       -15.6354   26.4926   33.5364 O.3         1 DGX      -0.3874
     18 C15       -16.8101   27.5146   31.7095 C.3         1 DGX      -0.0200
     19 C16       -18.0171   26.5653   31.7645 C.3         1 DGX      -0.0318
     20 C17       -17.4855   25.1129   31.5294 C.3         1 DGX       0.0177
     21 C18       -15.0928   24.0922   32.0959 C.3         1 DGX      -0.0516
     22 C19       -11.2326   27.0244   30.3647 C.3         1 DGX      -0.0590
     23 C20       -18.0331   24.0844   32.4362 C.2         1 DGX      -0.0063
     24 C21       -18.7857   24.2840   33.6626 C.3         1 DGX       0.1204
     25 O21       -19.0680   22.9526   34.0884 O.3         1 DGX      -0.2665
     26 C22       -17.9582   22.7656   32.1995 C.2         1 DGX       0.0017
     27 C23       -18.5624   22.0828   33.1960 C.2         1 DGX       0.2187
     28 O23       -18.6541   20.7368   33.2897 O.2         1 DGX      -0.3870
     29 C1X       -11.0780   31.7894   26.9258 C.3         1 DGX       0.1624
     30 C2X       -10.7546   30.8650   25.7172 C.3         1 DGX       0.0270
     31 C3X       -10.3195   31.6748   24.4691 C.3         1 DGX       0.0881
     32 O3X        -9.0059   32.1942   24.6529 O.3         1 DGX      -0.3890
     33 C4X       -11.3377   32.8094   24.1647 C.3         1 DGX       0.1070
     34 O4X       -10.8416   33.6500   23.1188 O.3         1 DGX      -0.3867
     35 C5X       -11.6340   33.6558   25.4419 C.3         1 DGX       0.0871
     36 O5X       -12.0237   32.8206   26.5598 O.3         1 DGX      -0.3456
     37 C6X       -12.7769   34.6726   25.2041 C.3         1 DGX      -0.0361
     38 H1        -12.3169   27.2006   27.7980 H           1 DGX       0.0271
     39 H2        -11.1640   28.4533   28.1575 H           1 DGX       0.0271
     40 H3        -14.1642   28.9424   27.8303 H           1 DGX       0.0290
     41 H4        -12.9371   29.2057   26.6387 H           1 DGX       0.0290
     42 H5        -13.5604   31.3214   27.9212 H           1 DGX       0.0597
     43 H6        -14.1695   30.3658   30.0170 H           1 DGX       0.0293
     44 H7        -12.8386   31.4723   30.3081 H           1 DGX       0.0293
     45 H8        -11.2415   29.6848   30.5056 H           1 DGX       0.0307
     46 H9        -12.5972   30.3309   32.5189 H           1 DGX       0.0268
     47 H10       -11.8378   28.7584   32.6203 H           1 DGX       0.0268
     48 H11       -14.7702   29.3484   32.0681 H           1 DGX       0.0269
     49 H12       -14.0818   28.5968   33.5015 H           1 DGX       0.0269
     50 H13       -13.4445   26.6094   32.2566 H           1 DGX       0.0332
     51 H14       -14.5832   27.9326   29.7871 H           1 DGX       0.0310
     52 H15       -13.3396   25.1581   30.0083 H           1 DGX       0.0293
     53 H16       -13.9449   25.9093   28.5397 H           1 DGX       0.0293
     54 H17       -16.1861   25.9959   29.3533 H           1 DGX       0.0602
     55 H18       -15.4310   24.2027   28.3009 H           1 DGX       0.2098
     56 H19       -16.4875   26.0614   33.7503 H           1 DGX       0.2102
     57 H20       -16.7084   27.9167   30.6996 H           1 DGX       0.0295
     58 H21       -16.9467   28.3551   32.3958 H           1 DGX       0.0295
     59 H22       -18.7543   26.8454   31.0079 H           1 DGX       0.0301
     60 H23       -18.4886   26.6965   32.7387 H           1 DGX       0.0301
     61 H24       -17.8852   24.8194   30.5546 H           1 DGX       0.0550
     62 H25       -15.2751   23.1372   31.6034 H           1 DGX       0.0239
     63 H26       -15.3619   23.9819   33.1472 H           1 DGX       0.0239
     64 H27       -14.0238   24.2773   32.0493 H           1 DGX       0.0239
     65 H28       -10.2661   27.5225   30.2442 H           1 DGX       0.0235
     66 H29       -11.1894   26.0936   29.7951 H           1 DGX       0.0235
     67 H30       -11.3342   26.7678   31.4110 H           1 DGX       0.0235
     68 H31       -19.7245   24.8120   33.4788 H           1 DGX       0.0859
     69 H32       -18.1927   24.8069   34.4154 H           1 DGX       0.0859
     70 H33       -17.5304   22.3418   31.4115 H           1 DGX       0.0295
     71 H34       -10.1463   32.2821   27.2168 H           1 DGX       0.0910
     72 H35       -11.6383   30.3112   25.4219 H           1 DGX       0.0340
     73 H36        -9.9783   30.1458   25.9961 H           1 DGX       0.0340
     74 H37       -10.2820   30.9979   23.6106 H           1 DGX       0.0621
     75 H38        -8.4318   31.4013   24.7288 H           1 DGX       0.2099
     76 H39       -12.2716   32.3547   23.8170 H           1 DGX       0.0645
     77 H40       -10.6960   33.0656   22.3423 H           1 DGX       0.2100
     78 H41       -10.7342   34.2185   25.7143 H           1 DGX       0.0621
     79 H42       -12.9340   35.2746   26.1018 H           1 DGX       0.0255
     80 H43       -13.7069   34.1490   24.9687 H           1 DGX       0.0255
     81 H44       -12.5323   35.3438   24.3782 H           1 DGX       0.0255
@<TRIPOS>BOND
     1    11     1   1
     2     1     2   1
     3     2     3   1
     4     3     5   1
     5     3     4   1
     6     4    29   1
     7    29    36   1
     8    29    30   1
     9    30    31   1
    10    31    33   1
    11    31    32   1
    12    33    35   1
    13    33    34   1
    14    35    37   1
    15    36    35   1
    16     5     6   1
    17    11     6   1
    18     6     7   1
    19     7     8   1
    20     8     9   1
    21     9    16   1
    22     9    10   1
    23    10    12   1
    24    10    11   1
    25    11    22   1
    26    12    13   1
    27    13    15   1
    28    13    14   1
    29    15    21   1
    30    15    20   1
    31    15    16   1
    32    16    18   1
    33    16    17   1
    34    18    19   1
    35    20    19   1
    36    20    23   1
    37    23    26   2
    38    23    24   1
    39    24    25   1
    40    25    27   1
    41    27    28   2
    42    27    26   1
    43     1    38   1
    44     1    39   1
    45     2    40   1
    46     2    41   1
    47     3    42   1
    48     5    43   1
    49     5    44   1
    50     6    45   1
    51     7    46   1
    52     7    47   1
    53     8    48   1
    54     8    49   1
    55     9    50   1
    56    10    51   1
    57    12    52   1
    58    12    53   1
    59    13    54   1
    60    14    55   1
    61    17    56   1
    62    18    57   1
    63    18    58   1
    64    19    59   1
    65    19    60   1
    66    20    61   1
    67    21    62   1
    68    21    63   1
    69    21    64   1
    70    22    65   1
    71    22    66   1
    72    22    67   1
    73    24    68   1
    74    24    69   1
    75    26    70   1
    76    29    71   1
    77    30    72   1
    78    30    73   1
    79    31    74   1
    80    32    75   1
    81    33    76   1
    82    34    77   1
    83    35    78   1
    84    37    79   1
    85    37    80   1
    86    37    81   1
@<TRIPOS>SUBSTRUCTURE
     1  DGX      1

