@<TRIPOS>MOLECULE
1igj_ligand_053
    81    86
SMALL
GAST_HUCK
****
This file was generated by PARSER (from files_GN.cpp)

@<TRIPOS>ATOM
      1 C1        -12.6554   28.6997   29.7557 C.3         1 DGX      -0.0448
      2 C2        -11.4328   27.8635   30.2375 C.3         1 DGX      -0.0260
      3 C3        -11.3237   26.4975   29.5027 C.3         1 DGX       0.0620
      4 O3        -11.0290   26.7344   28.0978 O.3         1 DGX      -0.3480
      5 C4        -12.6692   25.7513   29.7293 C.3         1 DGX      -0.0232
      6 C5        -13.8578   26.5459   29.0940 C.3         1 DGX      -0.0330
      7 C6        -15.1437   25.6740   29.0896 C.3         1 DGX      -0.0493
      8 C7        -15.7135   25.4864   30.5088 C.3         1 DGX      -0.0470
      9 C8        -15.9813   26.8471   31.2302 C.3         1 DGX      -0.0079
     10 C9        -14.7197   27.7982   31.2008 C.3         1 DGX      -0.0276
     11 C10       -14.0696   27.9728   29.7486 C.3         1 DGX      -0.0258
     12 C11       -15.0914   29.1283   31.9442 C.3         1 DGX      -0.0223
     13 C12       -15.6053   28.8691   33.3898 C.3         1 DGX       0.0664
     14 O12       -15.8144   30.1145   34.0613 O.3         1 DGX      -0.3909
     15 C13       -16.8722   27.9273   33.4916 C.3         1 DGX       0.0405
     16 C14       -16.6134   26.6131   32.6609 C.3         1 DGX       0.0799
     17 O14       -17.8527   25.9089   32.4365 O.3         1 DGX      -0.3874
     18 C15       -15.7711   25.7343   33.6189 C.3         1 DGX      -0.0200
     19 C16       -16.3818   25.9733   35.0082 C.3         1 DGX      -0.0318
     20 C17       -17.0198   27.4013   34.9923 C.3         1 DGX       0.0177
     21 C18       -18.1380   28.6849   32.9413 C.3         1 DGX      -0.0516
     22 C19       -14.9913   28.8499   28.8240 C.3         1 DGX      -0.0590
     23 C20       -18.3375   27.5123   35.6378 C.2         1 DGX      -0.0063
     24 C21       -19.2481   26.4413   36.0181 C.3         1 DGX       0.1204
     25 O21       -20.3524   27.1431   36.5786 O.3         1 DGX      -0.2665
     26 C22       -18.9011   28.6816   35.9773 C.2         1 DGX       0.0017
     27 C23       -20.1080   28.4674   36.5362 C.2         1 DGX       0.2187
     28 O23       -20.9531   29.4199   36.9893 O.2         1 DGX      -0.3870
     29 C1X       -10.7664   25.6512   27.1809 C.3         1 DGX       0.1624
     30 C2X        -9.2615   25.6117   26.8015 C.3         1 DGX       0.0270
     31 C3X        -8.9466   24.4165   25.8706 C.3         1 DGX       0.0881
     32 O3X        -9.5222   24.6279   24.5770 O.3         1 DGX      -0.3890
     33 C4X        -9.4725   23.0746   26.4489 C.3         1 DGX       0.1070
     34 O4X        -9.3053   22.0259   25.4997 O.3         1 DGX      -0.3867
     35 C5X       -10.9726   23.2186   26.8243 C.3         1 DGX       0.0871
     36 O5X       -11.1678   24.3667   27.6901 O.3         1 DGX      -0.3456
     37 C6X       -11.5149   21.9943   27.5902 C.3         1 DGX      -0.0361
     38 H1        -12.6912   29.6134   30.3501 H           1 DGX       0.0271
     39 H2        -12.4049   29.0177   28.7407 H           1 DGX       0.0271
     40 H3        -11.5089   27.6956   31.3148 H           1 DGX       0.0290
     41 H4        -10.5114   28.4314   30.0754 H           1 DGX       0.0290
     42 H5        -10.4962   25.9378   29.9449 H           1 DGX       0.0597
     43 H6        -12.8076   25.6190   30.8056 H           1 DGX       0.0293
     44 H7        -12.6291   24.7455   29.2965 H           1 DGX       0.0293
     45 H8        -13.6104   26.6882   28.0332 H           1 DGX       0.0307
     46 H9        -14.9358   24.6971   28.6495 H           1 DGX       0.0268
     47 H10       -15.8997   26.1468   28.4631 H           1 DGX       0.0268
     48 H11       -15.0256   24.8727   31.0911 H           1 DGX       0.0269
     49 H12       -16.6489   24.9231   30.4135 H           1 DGX       0.0269
     50 H13       -16.7608   27.3369   30.6428 H           1 DGX       0.0332
     51 H14       -13.9530   27.3275   31.8162 H           1 DGX       0.0310
     52 H15       -15.8517   29.6837   31.3945 H           1 DGX       0.0293
     53 H16       -14.2171   29.7749   32.0198 H           1 DGX       0.0293
     54 H17       -14.7696   28.4108   33.9254 H           1 DGX       0.0602
     55 H18       -16.3361   30.6717   33.4461 H           1 DGX       0.2098
     56 H19       -18.3293   25.8841   33.2918 H           1 DGX       0.2102
     57 H20       -14.7225   26.0342   33.6225 H           1 DGX       0.0295
     58 H21       -15.8184   24.6732   33.3551 H           1 DGX       0.0295
     59 H22       -15.6146   25.8821   35.7831 H           1 DGX       0.0301
     60 H23       -17.1147   25.1841   35.1837 H           1 DGX       0.0301
     61 H24       -16.3609   27.9976   35.6357 H           1 DGX       0.0550
     62 H25       -18.3145   29.6122   33.4878 H           1 DGX       0.0239
     63 H26       -19.0382   28.0755   33.0331 H           1 DGX       0.0239
     64 H27       -18.0285   28.9441   31.8861 H           1 DGX       0.0239
     65 H28       -14.6205   28.8636   27.7985 H           1 DGX       0.0235
     66 H29       -15.0228   29.8856   29.1681 H           1 DGX       0.0235
     67 H30       -16.0133   28.4820   28.7928 H           1 DGX       0.0235
     68 H31       -18.8122   25.7868   36.7748 H           1 DGX       0.0859
     69 H32       -19.5742   25.8644   35.1518 H           1 DGX       0.0859
     70 H33       -18.4929   29.5763   35.8399 H           1 DGX       0.0295
     71 H34       -11.3426   25.8683   26.2801 H           1 DGX       0.0910
     72 H35        -8.6653   25.5254   27.7139 H           1 DGX       0.0340
     73 H36        -8.9865   26.5419   26.3071 H           1 DGX       0.0340
     74 H37        -7.8685   24.3282   25.7372 H           1 DGX       0.0621
     75 H38        -9.2426   25.5326   24.3134 H           1 DGX       0.2099
     76 H39        -8.9026   22.8169   27.3525 H           1 DGX       0.0645
     77 H40        -8.3357   21.9005   25.4256 H           1 DGX       0.2100
     78 H41       -11.5672   23.3404   25.9100 H           1 DGX       0.0621
     79 H42       -12.5976   22.0820   27.6894 H           1 DGX       0.0255
     80 H43       -11.0776   21.9499   28.5925 H           1 DGX       0.0255
     81 H44       -11.2673   21.0772   27.0574 H           1 DGX       0.0255
@<TRIPOS>BOND
     1    11     1   1
     2     1     2   1
     3     2     3   1
     4     3     5   1
     5     3     4   1
     6     4    29   1
     7    29    36   1
     8    29    30   1
     9    30    31   1
    10    31    33   1
    11    31    32   1
    12    33    35   1
    13    33    34   1
    14    35    37   1
    15    36    35   1
    16     5     6   1
    17    11     6   1
    18     6     7   1
    19     7     8   1
    20     8     9   1
    21     9    16   1
    22     9    10   1
    23    10    12   1
    24    10    11   1
    25    11    22   1
    26    12    13   1
    27    13    15   1
    28    13    14   1
    29    15    21   1
    30    15    20   1
    31    15    16   1
    32    16    18   1
    33    16    17   1
    34    18    19   1
    35    20    19   1
    36    20    23   1
    37    23    26   2
    38    23    24   1
    39    24    25   1
    40    25    27   1
    41    27    28   2
    42    27    26   1
    43     1    38   1
    44     1    39   1
    45     2    40   1
    46     2    41   1
    47     3    42   1
    48     5    43   1
    49     5    44   1
    50     6    45   1
    51     7    46   1
    52     7    47   1
    53     8    48   1
    54     8    49   1
    55     9    50   1
    56    10    51   1
    57    12    52   1
    58    12    53   1
    59    13    54   1
    60    14    55   1
    61    17    56   1
    62    18    57   1
    63    18    58   1
    64    19    59   1
    65    19    60   1
    66    20    61   1
    67    21    62   1
    68    21    63   1
    69    21    64   1
    70    22    65   1
    71    22    66   1
    72    22    67   1
    73    24    68   1
    74    24    69   1
    75    26    70   1
    76    29    71   1
    77    30    72   1
    78    30    73   1
    79    31    74   1
    80    32    75   1
    81    33    76   1
    82    34    77   1
    83    35    78   1
    84    37    79   1
    85    37    80   1
    86    37    81   1
@<TRIPOS>SUBSTRUCTURE
     1  DGX      1

