@<TRIPOS>MOLECULE
1igj_ligand_035
    81    86
SMALL
GAST_HUCK
****
This file was generated by PARSER (from files_GN.cpp)

@<TRIPOS>ATOM
      1 C1        -13.9056   31.2654   29.7913 C.3         1 DGX      -0.0448
      2 C2        -12.4175   30.9903   30.1412 C.3         1 DGX      -0.0260
      3 C3        -11.6671   30.1632   29.0584 C.3         1 DGX       0.0620
      4 O3        -11.4928   30.9347   27.8459 O.3         1 DGX      -0.3480
      5 C4        -12.4926   28.8852   28.7530 C.3         1 DGX      -0.0232
      6 C5        -13.9537   29.2205   28.2997 C.3         1 DGX      -0.0330
      7 C6        -14.6856   27.9465   27.7982 C.3         1 DGX      -0.0493
      8 C7        -15.0114   26.9774   28.9545 C.3         1 DGX      -0.0470
      9 C8        -15.7762   27.6550   30.1375 C.3         1 DGX      -0.0079
     10 C9        -15.1110   29.0130   30.6024 C.3         1 DGX      -0.0276
     11 C10       -14.7800   30.0060   29.3945 C.3         1 DGX      -0.0258
     12 C11       -15.9519   29.6256   31.7691 C.3         1 DGX      -0.0223
     13 C12       -16.1520   28.6223   32.9408 C.3         1 DGX       0.0664
     14 O12       -16.8792   29.2672   33.9909 O.3         1 DGX      -0.3909
     15 C13       -16.8308   27.2484   32.5306 C.3         1 DGX       0.0405
     16 C14       -16.0585   26.6324   31.3073 C.3         1 DGX       0.0799
     17 O14       -16.8511   25.5775   30.7438 O.3         1 DGX      -0.3874
     18 C15       -14.8112   25.9565   31.9489 C.3         1 DGX      -0.0200
     19 C16       -15.1910   25.5894   33.4013 C.3         1 DGX      -0.0318
     20 C17       -16.6039   26.1836   33.6798 C.3         1 DGX       0.0177
     21 C18       -18.3534   27.5000   32.2255 C.3         1 DGX      -0.0516
     22 C19       -16.1039   30.5934   28.7693 C.3         1 DGX      -0.0590
     23 C20       -17.6534   25.1639   33.9110 C.2         1 DGX      -0.0063
     24 C21       -17.7519   23.8205   33.3585 C.3         1 DGX       0.1204
     25 O21       -18.9511   23.3224   33.9462 O.3         1 DGX      -0.2665
     26 C22       -18.7114   25.3717   34.7057 C.2         1 DGX       0.0017
     27 C23       -19.4933   24.2701   34.7315 C.2         1 DGX       0.2187
     28 O23       -20.6466   24.1322   35.4212 O.2         1 DGX      -0.3870
     29 C1X       -10.3788   30.7496   26.9331 C.3         1 DGX       0.1624
     30 C2X        -9.7854   29.3139   26.7747 C.3         1 DGX       0.0270
     31 C3X        -8.7922   29.2284   25.5896 C.3         1 DGX       0.0881
     32 O3X        -7.5992   29.9719   25.8543 O.3         1 DGX      -0.3890
     33 C4X        -9.4808   29.7284   24.2933 C.3         1 DGX       0.1070
     34 O4X        -8.5584   29.6743   23.2044 O.3         1 DGX      -0.3867
     35 C5X       -10.0279   31.1691   24.5125 C.3         1 DGX       0.0871
     36 O5X       -10.8963   31.2147   25.6656 O.3         1 DGX      -0.3456
     37 C6X       -10.8392   31.6858   23.3014 C.3         1 DGX      -0.0361
     38 H1        -14.3647   31.7993   30.6254 H           1 DGX       0.0271
     39 H2        -13.8930   31.9711   28.9518 H           1 DGX       0.0271
     40 H3        -12.3714   30.4629   31.0980 H           1 DGX       0.0290
     41 H4        -11.9027   31.9465   30.2760 H           1 DGX       0.0290
     42 H5        -10.6968   29.8889   29.4829 H           1 DGX       0.0597
     43 H6        -12.4858   28.2575   29.6428 H           1 DGX       0.0293
     44 H7        -12.0129   28.2984   27.9778 H           1 DGX       0.0293
     45 H8        -13.8568   29.8656   27.4243 H           1 DGX       0.0307
     46 H9        -14.0710   27.4301   27.0541 H           1 DGX       0.0268
     47 H10       -15.6086   28.2317   27.2870 H           1 DGX       0.0268
     48 H11       -14.0832   26.5311   29.3141 H           1 DGX       0.0269
     49 H12       -15.6160   26.1718   28.5310 H           1 DGX       0.0269
     50 H13       -16.7589   27.9133   29.7379 H           1 DGX       0.0332
     51 H14       -14.1561   28.7589   31.0600 H           1 DGX       0.0310
     52 H15       -16.9241   29.9578   31.4055 H           1 DGX       0.0293
     53 H16       -15.4366   30.5004   32.1709 H           1 DGX       0.0293
     54 H17       -15.1565   28.4244   33.3527 H           1 DGX       0.0602
     55 H18       -16.2825   29.9666   34.3337 H           1 DGX       0.2098
     56 H19       -16.2527   25.0346   30.1916 H           1 DGX       0.2102
     57 H20       -13.9572   26.6362   31.9632 H           1 DGX       0.0295
     58 H21       -14.5062   25.0631   31.3969 H           1 DGX       0.0295
     59 H22       -14.4629   26.0353   34.0872 H           1 DGX       0.0301
     60 H23       -15.1366   24.5090   33.5475 H           1 DGX       0.0301
     61 H24       -16.5165   26.7271   34.6282 H           1 DGX       0.0550
     62 H25       -18.8653   27.8693   33.1159 H           1 DGX       0.0239
     63 H26       -18.8562   26.5847   31.9145 H           1 DGX       0.0239
     64 H27       -18.4930   28.2282   31.4269 H           1 DGX       0.0239
     65 H28       -15.8915   31.1529   27.8537 H           1 DGX       0.0235
     66 H29       -16.5921   31.2825   29.4656 H           1 DGX       0.0235
     67 H30       -16.8283   29.8200   28.5123 H           1 DGX       0.0235
     68 H31       -16.9147   23.1840   33.6481 H           1 DGX       0.0859
     69 H32       -17.8734   23.8164   32.2777 H           1 DGX       0.0859
     70 H33       -18.9102   26.2087   35.1996 H           1 DGX       0.0295
     71 H34        -9.5826   31.4259   27.2590 H           1 DGX       0.0910
     72 H35       -10.5828   28.6013   26.5716 H           1 DGX       0.0340
     73 H36        -9.2744   29.0118   27.6911 H           1 DGX       0.0340
     74 H37        -8.5092   28.1824   25.4562 H           1 DGX       0.0621
     75 H38        -7.0434   29.3898   26.4194 H           1 DGX       0.2099
     76 H39       -10.3128   29.0564   24.0535 H           1 DGX       0.0645
     77 H40        -9.1134   29.6532   22.3957 H           1 DGX       0.2100
     78 H41        -9.1880   31.8531   24.6719 H           1 DGX       0.0621
     79 H42       -11.2096   32.6922   23.5027 H           1 DGX       0.0255
     80 H43       -11.6918   31.0345   23.0999 H           1 DGX       0.0255
     81 H44       -10.2120   31.7248   22.4101 H           1 DGX       0.0255
@<TRIPOS>BOND
     1    11     1   1
     2     1     2   1
     3     2     3   1
     4     3     5   1
     5     3     4   1
     6     4    29   1
     7    29    36   1
     8    29    30   1
     9    30    31   1
    10    31    33   1
    11    31    32   1
    12    33    35   1
    13    33    34   1
    14    35    37   1
    15    36    35   1
    16     5     6   1
    17    11     6   1
    18     6     7   1
    19     7     8   1
    20     8     9   1
    21     9    16   1
    22     9    10   1
    23    10    12   1
    24    10    11   1
    25    11    22   1
    26    12    13   1
    27    13    15   1
    28    13    14   1
    29    15    21   1
    30    15    20   1
    31    15    16   1
    32    16    18   1
    33    16    17   1
    34    18    19   1
    35    20    19   1
    36    20    23   1
    37    23    26   2
    38    23    24   1
    39    24    25   1
    40    25    27   1
    41    27    28   2
    42    27    26   1
    43     1    38   1
    44     1    39   1
    45     2    40   1
    46     2    41   1
    47     3    42   1
    48     5    43   1
    49     5    44   1
    50     6    45   1
    51     7    46   1
    52     7    47   1
    53     8    48   1
    54     8    49   1
    55     9    50   1
    56    10    51   1
    57    12    52   1
    58    12    53   1
    59    13    54   1
    60    14    55   1
    61    17    56   1
    62    18    57   1
    63    18    58   1
    64    19    59   1
    65    19    60   1
    66    20    61   1
    67    21    62   1
    68    21    63   1
    69    21    64   1
    70    22    65   1
    71    22    66   1
    72    22    67   1
    73    24    68   1
    74    24    69   1
    75    26    70   1
    76    29    71   1
    77    30    72   1
    78    30    73   1
    79    31    74   1
    80    32    75   1
    81    33    76   1
    82    34    77   1
    83    35    78   1
    84    37    79   1
    85    37    80   1
    86    37    81   1
@<TRIPOS>SUBSTRUCTURE
     1  DGX      1

