@<TRIPOS>MOLECULE
1igj_ligand_029
    81    86
SMALL
GAST_HUCK
****
This file was generated by PARSER (from files_GN.cpp)

@<TRIPOS>ATOM
      1 C1        -18.0322   26.3880   32.2164 C.3         1 DGX      -0.0448
      2 C2        -19.1527   25.5096   31.6008 C.3         1 DGX      -0.0260
      3 C3        -19.3057   24.1643   32.3559 C.3         1 DGX       0.0620
      4 O3        -19.7873   24.3277   33.7088 O.3         1 DGX      -0.3480
      5 C4        -17.9401   23.4339   32.4242 C.3         1 DGX      -0.0232
      6 C5        -16.7948   24.3137   33.0337 C.3         1 DGX      -0.0330
      7 C6        -15.4602   23.5136   33.1210 C.3         1 DGX      -0.0493
      8 C7        -14.8083   23.2813   31.7380 C.3         1 DGX      -0.0470
      9 C8        -14.6050   24.6002   30.9255 C.3         1 DGX      -0.0079
     10 C9        -15.9247   25.4667   30.8760 C.3         1 DGX      -0.0276
     11 C10       -16.6074   25.7070   32.2977 C.3         1 DGX      -0.0258
     12 C11       -15.6465   26.7659   30.0560 C.3         1 DGX      -0.0223
     13 C12       -15.1134   26.4661   28.6345 C.3         1 DGX       0.0664
     14 O12       -15.0066   27.7108   27.9353 O.3         1 DGX      -0.3909
     15 C13       -13.7762   25.6152   28.5949 C.3         1 DGX       0.0405
     16 C14       -13.9517   24.3375   29.5061 C.3         1 DGX       0.0799
     17 O14       -12.6748   23.7122   29.7289 O.3         1 DGX      -0.3874
     18 C15       -14.7107   23.3431   28.5977 C.3         1 DGX      -0.0200
     19 C16       -14.0954   23.5427   27.2020 C.3         1 DGX      -0.0318
     20 C17       -13.5747   25.0120   27.1341 C.3         1 DGX       0.0177
     21 C18       -12.5840   26.5153   29.0914 C.3         1 DGX      -0.0516
     22 C19       -15.7365   26.6735   33.1877 C.3         1 DGX      -0.0590
     23 C20       -12.2433   25.1575   26.5031 C.2         1 DGX      -0.0063
     24 C21       -11.1965   24.1567   26.3975 C.3         1 DGX       0.1204
     25 O21       -10.1082   24.8870   25.8412 O.3         1 DGX      -0.2665
     26 C22       -11.7712   26.3142   26.0233 C.2         1 DGX       0.0017
     27 C23       -10.4920   26.1542   25.6098 C.2         1 DGX       0.2187
     28 O23        -9.7086   27.1153   25.0734 O.2         1 DGX      -0.3870
     29 C1X       -21.0989   24.8878   33.9117 C.3         1 DGX       0.1624
     30 C2X       -22.0005   23.8154   34.5771 C.3         1 DGX       0.0270
     31 C3X       -23.3411   24.4351   35.0476 C.3         1 DGX       0.0881
     32 O3X       -24.1459   24.7518   33.9094 O.3         1 DGX      -0.3890
     33 C4X       -23.0847   25.6977   35.9195 C.3         1 DGX       0.1070
     34 O4X       -24.3207   26.3353   36.2458 O.3         1 DGX      -0.3867
     35 C5X       -22.1342   26.6920   35.1873 C.3         1 DGX       0.0871
     36 O5X       -20.9198   26.0219   34.7834 O.3         1 DGX      -0.3456
     37 C6X       -21.7313   27.8922   36.0761 C.3         1 DGX      -0.0361
     38 H1        -17.9898   27.3236   31.6580 H           1 DGX       0.0271
     39 H2        -18.3646   26.6594   33.2224 H           1 DGX       0.0271
     40 H3        -18.9364   25.3152   30.5505 H           1 DGX       0.0290
     41 H4        -20.0921   26.0663   31.6309 H           1 DGX       0.0290
     42 H5        -20.0014   23.5203   31.8033 H           1 DGX       0.0597
     43 H6        -17.6850   23.1092   31.4143 H           1 DGX       0.0293
     44 H7        -18.0620   22.5277   33.0248 H           1 DGX       0.0293
     45 H8        -17.0936   24.5154   34.0679 H           1 DGX       0.0307
     46 H9        -15.6417   22.5493   33.6010 H           1 DGX       0.0268
     47 H10       -14.7551   24.0462   33.7592 H           1 DGX       0.0268
     48 H11       -15.4237   22.5785   31.1776 H           1 DGX       0.0269
     49 H12       -13.8414   22.7964   31.8981 H           1 DGX       0.0269
     50 H13       -13.8675   25.1796   31.4831 H           1 DGX       0.0332
     51 H14       -16.6409   24.8970   30.2876 H           1 DGX       0.0310
     52 H15       -14.9336   27.4031   30.5834 H           1 DGX       0.0293
     53 H16       -16.5692   27.3369   29.9430 H           1 DGX       0.0293
     54 H17       -15.9068   25.9125   28.1292 H           1 DGX       0.0602
     55 H18       -14.9049   27.4838   26.9853 H           1 DGX       0.2098
     56 H19       -12.1066   24.3994   30.1278 H           1 DGX       0.2102
     57 H20       -15.7781   23.5608   28.5646 H           1 DGX       0.0295
     58 H21       -14.5945   22.3046   28.9270 H           1 DGX       0.0295
     59 H22       -14.8334   23.3426   26.4205 H           1 DGX       0.0301
     60 H23       -13.3000   22.8035   27.0964 H           1 DGX       0.0301
     61 H24       -14.2643   25.5174   26.4438 H           1 DGX       0.0550
     62 H25       -12.4849   27.4095   28.4765 H           1 DGX       0.0239
     63 H26       -11.6352   25.9822   29.0403 H           1 DGX       0.0239
     64 H27       -12.7157   26.8279   30.1244 H           1 DGX       0.0239
     65 H28       -16.1303   26.7308   34.2056 H           1 DGX       0.0235
     66 H29       -15.7397   27.6905   32.7848 H           1 DGX       0.0235
     67 H30       -14.6975   26.3543   33.2595 H           1 DGX       0.0235
     68 H31       -11.4659   23.3518   25.7067 H           1 DGX       0.0859
     69 H32       -10.9296   23.7471   27.3731 H           1 DGX       0.0859
     70 H33       -12.2595   27.1747   25.9966 H           1 DGX       0.0295
     71 H34       -21.5687   25.2168   32.9775 H           1 DGX       0.0910
     72 H35       -21.4800   23.3945   35.4413 H           1 DGX       0.0340
     73 H36       -22.1937   23.0035   33.8695 H           1 DGX       0.0340
     74 H37       -23.8840   23.6925   35.6401 H           1 DGX       0.0621
     75 H38       -25.0125   25.0368   34.2711 H           1 DGX       0.2099
     76 H39       -22.6140   25.3820   36.8550 H           1 DGX       0.0645
     77 H40       -24.8157   25.6813   36.7852 H           1 DGX       0.2100
     78 H41       -22.6380   27.0897   34.2989 H           1 DGX       0.0621
     79 H42       -21.0728   28.5615   35.5189 H           1 DGX       0.0255
     80 H43       -21.2042   27.5483   36.9683 H           1 DGX       0.0255
     81 H44       -22.6149   28.4555   36.3829 H           1 DGX       0.0255
@<TRIPOS>BOND
     1    11     1   1
     2     1     2   1
     3     2     3   1
     4     3     5   1
     5     3     4   1
     6     4    29   1
     7    29    36   1
     8    29    30   1
     9    30    31   1
    10    31    33   1
    11    31    32   1
    12    33    35   1
    13    33    34   1
    14    35    37   1
    15    36    35   1
    16     5     6   1
    17    11     6   1
    18     6     7   1
    19     7     8   1
    20     8     9   1
    21     9    16   1
    22     9    10   1
    23    10    12   1
    24    10    11   1
    25    11    22   1
    26    12    13   1
    27    13    15   1
    28    13    14   1
    29    15    21   1
    30    15    20   1
    31    15    16   1
    32    16    18   1
    33    16    17   1
    34    18    19   1
    35    20    19   1
    36    20    23   1
    37    23    26   2
    38    23    24   1
    39    24    25   1
    40    25    27   1
    41    27    28   2
    42    27    26   1
    43     1    38   1
    44     1    39   1
    45     2    40   1
    46     2    41   1
    47     3    42   1
    48     5    43   1
    49     5    44   1
    50     6    45   1
    51     7    46   1
    52     7    47   1
    53     8    48   1
    54     8    49   1
    55     9    50   1
    56    10    51   1
    57    12    52   1
    58    12    53   1
    59    13    54   1
    60    14    55   1
    61    17    56   1
    62    18    57   1
    63    18    58   1
    64    19    59   1
    65    19    60   1
    66    20    61   1
    67    21    62   1
    68    21    63   1
    69    21    64   1
    70    22    65   1
    71    22    66   1
    72    22    67   1
    73    24    68   1
    74    24    69   1
    75    26    70   1
    76    29    71   1
    77    30    72   1
    78    30    73   1
    79    31    74   1
    80    32    75   1
    81    33    76   1
    82    34    77   1
    83    35    78   1
    84    37    79   1
    85    37    80   1
    86    37    81   1
@<TRIPOS>SUBSTRUCTURE
     1  DGX      1

