@<TRIPOS>MOLECULE
1igj_ligand_050
    81    86
SMALL
GAST_HUCK
****
This file was generated by PARSER (from files_GN.cpp)

@<TRIPOS>ATOM
      1 C1        -14.4048   29.0697   31.6827 C.3         1 DGX      -0.0448
      2 C2        -12.9825   28.6237   32.1018 C.3         1 DGX      -0.0260
      3 C3        -12.2306   27.9224   30.9394 C.3         1 DGX       0.0620
      4 O3        -11.8592   28.9057   29.9455 O.3         1 DGX      -0.3480
      5 C4        -13.0940   26.7580   30.3799 C.3         1 DGX      -0.0232
      6 C5        -14.5291   27.2053   29.9502 C.3         1 DGX      -0.0330
      7 C6        -15.3105   26.0054   29.3388 C.3         1 DGX      -0.0493
      8 C7        -15.7424   24.9627   30.3977 C.3         1 DGX      -0.0470
      9 C8        -16.5270   25.5881   31.5946 C.3         1 DGX      -0.0079
     10 C9        -15.7688   26.8342   32.1988 C.3         1 DGX      -0.0276
     11 C10       -15.3339   27.9231   31.1114 C.3         1 DGX      -0.0258
     12 C11       -16.5820   27.4088   33.4010 C.3         1 DGX      -0.0223
     13 C12       -16.9227   26.3352   34.4670 C.3         1 DGX       0.0664
     14 O12       -17.5991   26.9663   35.5574 O.3         1 DGX      -0.3909
     15 C13       -17.7156   25.0839   33.9068 C.3         1 DGX       0.0405
     16 C14       -16.9553   24.5009   32.6597 C.3         1 DGX       0.0799
     17 O14       -17.8293   23.5836   31.9825 O.3         1 DGX      -0.3874
     18 C15       -15.8055   23.6595   33.2865 C.3         1 DGX      -0.0200
     19 C16       -16.2923   23.1848   34.6751 C.3         1 DGX      -0.0318
     20 C17       -17.6419   23.9104   34.9646 C.3         1 DGX       0.0177
     21 C18       -19.1904   25.5146   33.5638 C.3         1 DGX      -0.0516
     22 C19       -16.5831   28.6681   30.5113 C.3         1 DGX      -0.0590
     23 C20       -18.7954   22.9881   35.0534 C.2         1 DGX      -0.0063
     24 C21       -19.8077   23.0799   36.0901 C.3         1 DGX       0.1204
     25 O21       -20.6813   21.9988   35.7711 O.3         1 DGX      -0.2665
     26 C22       -19.0952   21.9657   34.2486 C.2         1 DGX       0.0017
     27 C23       -20.2273   21.3625   34.6757 C.2         1 DGX       0.2187
     28 O23       -20.8041   20.2764   34.1178 O.2         1 DGX      -0.3870
     29 C1X       -10.9780   28.5392   28.8562 C.3         1 DGX       0.1624
     30 C2X        -9.8898   29.6371   28.7107 C.3         1 DGX       0.0270
     31 C3X        -8.8316   29.2657   27.6326 C.3         1 DGX       0.0881
     32 O3X        -9.3848   29.4124   26.3235 O.3         1 DGX      -0.3890
     33 C4X        -8.3072   27.8198   27.8424 C.3         1 DGX       0.1070
     34 O4X        -7.4279   27.4447   26.7823 O.3         1 DGX      -0.3867
     35 C5X        -9.4948   26.8207   27.9549 C.3         1 DGX       0.0871
     36 O5X       -10.3461   27.2503   29.0297 O.3         1 DGX      -0.3456
     37 C6X        -9.0505   25.3746   28.2700 C.3         1 DGX      -0.0361
     38 H1        -14.8744   29.5674   32.5334 H           1 DGX       0.0271
     39 H2        -14.2747   29.8442   30.9207 H           1 DGX       0.0271
     40 H3        -13.0484   27.9525   32.9616 H           1 DGX       0.0290
     41 H4        -12.4102   29.4984   32.4234 H           1 DGX       0.0290
     42 H5        -11.3130   27.5051   31.3620 H           1 DGX       0.0597
     43 H6        -13.1421   25.9823   31.1472 H           1 DGX       0.0293
     44 H7        -12.5915   26.3109   29.5209 H           1 DGX       0.0293
     45 H8        -14.3882   27.9246   29.1360 H           1 DGX       0.0307
     46 H9        -14.6977   25.5061   28.5828 H           1 DGX       0.0268
     47 H10       -16.1976   26.3721   28.8214 H           1 DGX       0.0268
     48 H11       -14.8582   24.4364   30.7640 H           1 DGX       0.0269
     49 H12       -16.3638   24.2241   29.8846 H           1 DGX       0.0269
     50 H13       -17.4630   25.9570   31.1722 H           1 DGX       0.0332
     51 H14       -14.8486   26.4485   32.6389 H           1 DGX       0.0310
     52 H15       -17.5044   27.8704   33.0499 H           1 DGX       0.0293
     53 H16       -15.9980   28.1826   33.9018 H           1 DGX       0.0293
     54 H17       -15.9682   26.0046   34.8852 H           1 DGX       0.0602
     55 H18       -18.3965   27.3876   35.1712 H           1 DGX       0.2098
     56 H19       -17.2814   23.0906   31.3349 H           1 DGX       0.2102
     57 H20       -14.9073   24.2646   33.4137 H           1 DGX       0.0295
     58 H21       -15.5387   22.8051   32.6571 H           1 DGX       0.0295
     59 H22       -15.5505   23.4538   35.4342 H           1 DGX       0.0301
     60 H23       -16.3831   22.0937   34.6942 H           1 DGX       0.0301
     61 H24       -17.5516   24.3537   35.9606 H           1 DGX       0.0550
     62 H25       -19.7100   25.8703   34.4541 H           1 DGX       0.0239
     63 H26       -19.7723   24.6840   33.1620 H           1 DGX       0.0239
     64 H27       -19.2128   26.3098   32.8201 H           1 DGX       0.0239
     65 H28       -16.2959   29.2941   29.6634 H           1 DGX       0.0235
     66 H29       -17.0491   29.3223   31.2511 H           1 DGX       0.0235
     67 H30       -17.3440   27.9776   30.1587 H           1 DGX       0.0235
     68 H31       -20.3474   24.0271   36.0431 H           1 DGX       0.0859
     69 H32       -19.3759   22.9388   37.0823 H           1 DGX       0.0859
     70 H33       -18.5595   21.6479   33.4755 H           1 DGX       0.0295
     71 H34       -11.5964   28.5186   27.9524 H           1 DGX       0.0910
     72 H35        -9.3824   29.7618   29.6701 H           1 DGX       0.0340
     73 H36       -10.3559   30.5913   28.4533 H           1 DGX       0.0340
     74 H37        -7.9879   29.9554   27.7101 H           1 DGX       0.0621
     75 H38        -9.6028   30.3639   26.2362 H           1 DGX       0.2099
     76 H39        -7.7365   27.7937   28.7754 H           1 DGX       0.0645
     77 H40        -6.6764   28.0685   26.8348 H           1 DGX       0.2100
     78 H41       -10.0583   26.7981   27.0141 H           1 DGX       0.0621
     79 H42        -9.9269   24.7322   28.3846 H           1 DGX       0.0255
     80 H43        -8.4724   25.3392   29.1960 H           1 DGX       0.0255
     81 H44        -8.4402   24.9795   27.4542 H           1 DGX       0.0255
@<TRIPOS>BOND
     1    11     1   1
     2     1     2   1
     3     2     3   1
     4     3     5   1
     5     3     4   1
     6     4    29   1
     7    29    36   1
     8    29    30   1
     9    30    31   1
    10    31    33   1
    11    31    32   1
    12    33    35   1
    13    33    34   1
    14    35    37   1
    15    36    35   1
    16     5     6   1
    17    11     6   1
    18     6     7   1
    19     7     8   1
    20     8     9   1
    21     9    16   1
    22     9    10   1
    23    10    12   1
    24    10    11   1
    25    11    22   1
    26    12    13   1
    27    13    15   1
    28    13    14   1
    29    15    21   1
    30    15    20   1
    31    15    16   1
    32    16    18   1
    33    16    17   1
    34    18    19   1
    35    20    19   1
    36    20    23   1
    37    23    26   2
    38    23    24   1
    39    24    25   1
    40    25    27   1
    41    27    28   2
    42    27    26   1
    43     1    38   1
    44     1    39   1
    45     2    40   1
    46     2    41   1
    47     3    42   1
    48     5    43   1
    49     5    44   1
    50     6    45   1
    51     7    46   1
    52     7    47   1
    53     8    48   1
    54     8    49   1
    55     9    50   1
    56    10    51   1
    57    12    52   1
    58    12    53   1
    59    13    54   1
    60    14    55   1
    61    17    56   1
    62    18    57   1
    63    18    58   1
    64    19    59   1
    65    19    60   1
    66    20    61   1
    67    21    62   1
    68    21    63   1
    69    21    64   1
    70    22    65   1
    71    22    66   1
    72    22    67   1
    73    24    68   1
    74    24    69   1
    75    26    70   1
    76    29    71   1
    77    30    72   1
    78    30    73   1
    79    31    74   1
    80    32    75   1
    81    33    76   1
    82    34    77   1
    83    35    78   1
    84    37    79   1
    85    37    80   1
    86    37    81   1
@<TRIPOS>SUBSTRUCTURE
     1  DGX      1

