@<TRIPOS>MOLECULE
1igj_ligand_005
    81    86
SMALL
GAST_HUCK
****
This file was generated by PARSER (from files_GN.cpp)

@<TRIPOS>ATOM
      1 C1        -12.3792   28.4532   30.5664 C.3         1 DGX      -0.0448
      2 C2        -12.5591   27.5786   29.3036 C.3         1 DGX      -0.0260
      3 C3        -13.1692   28.3955   28.1269 C.3         1 DGX       0.0620
      4 O3        -12.2570   29.3720   27.5479 O.3         1 DGX      -0.3480
      5 C4        -14.4733   29.1102   28.5888 C.3         1 DGX      -0.0232
      6 C5        -14.3510   29.9128   29.9330 C.3         1 DGX      -0.0330
      7 C6        -15.7179   30.5418   30.3524 C.3         1 DGX      -0.0493
      8 C7        -16.7260   29.5091   30.9190 C.3         1 DGX      -0.0470
      9 C8        -16.1566   28.5973   32.0589 C.3         1 DGX      -0.0079
     10 C9        -14.7654   27.9987   31.6390 C.3         1 DGX      -0.0276
     11 C10       -13.7126   29.0857   31.1221 C.3         1 DGX      -0.0258
     12 C11       -14.2311   27.0569   32.7620 C.3         1 DGX      -0.0223
     13 C12       -15.2447   25.9365   33.1012 C.3         1 DGX       0.0664
     14 O12       -14.6154   25.0544   34.0332 O.3         1 DGX      -0.3909
     15 C13       -16.6614   26.4527   33.5845 C.3         1 DGX       0.0405
     16 C14       -17.2078   27.5236   32.5579 C.3         1 DGX       0.0799
     17 O14       -18.2769   28.2793   33.1514 O.3         1 DGX      -0.3874
     18 C15       -17.8468   26.6552   31.4425 C.3         1 DGX      -0.0200
     19 C16       -18.4864   25.4517   32.1518 C.3         1 DGX      -0.0318
     20 C17       -17.7101   25.2568   33.4915 C.3         1 DGX       0.0177
     21 C18       -16.5032   27.0449   35.0321 C.3         1 DGX      -0.0516
     22 C19       -13.2561   30.0567   32.2764 C.3         1 DGX      -0.0590
     23 C20       -18.5789   24.9856   34.6557 C.2         1 DGX      -0.0063
     24 C21       -19.8096   25.6676   35.0341 C.3         1 DGX       0.1204
     25 O21       -20.1722   25.0136   36.2480 O.3         1 DGX      -0.2665
     26 C22       -18.3111   24.0510   35.5765 C.2         1 DGX       0.0017
     27 C23       -19.2672   24.0582   36.5335 C.2         1 DGX       0.2187
     28 O23       -19.3198   23.2374   37.6054 O.2         1 DGX      -0.3870
     29 C1X       -10.9620   28.9547   27.0375 C.3         1 DGX       0.1624
     30 C2X        -9.8717   29.5363   27.9815 C.3         1 DGX       0.0270
     31 C3X        -8.4583   28.9832   27.6662 C.3         1 DGX       0.0881
     32 O3X        -7.9630   29.5592   26.4517 O.3         1 DGX      -0.3890
     33 C4X        -8.4814   27.4336   27.5823 C.3         1 DGX       0.1070
     34 O4X        -7.1831   26.9437   27.2284 O.3         1 DGX      -0.3867
     35 C5X        -9.5536   26.9691   26.5471 C.3         1 DGX       0.0871
     36 O5X       -10.8481   27.5167   26.8794 O.3         1 DGX      -0.3456
     37 C6X        -9.7264   25.4325   26.5293 C.3         1 DGX      -0.0361
     38 H1        -11.8648   27.8607   31.3264 H           1 DGX       0.0271
     39 H2        -11.6866   29.2623   30.3026 H           1 DGX       0.0271
     40 H3        -13.2010   26.7207   29.5207 H           1 DGX       0.0290
     41 H4        -11.5848   27.1677   29.0259 H           1 DGX       0.0290
     42 H5        -13.4537   27.7019   27.3242 H           1 DGX       0.0597
     43 H6        -15.2485   28.3476   28.6844 H           1 DGX       0.0293
     44 H7        -14.7950   29.7896   27.7908 H           1 DGX       0.0293
     45 H8        -13.6846   30.7539   29.7082 H           1 DGX       0.0307
     46 H9        -16.1683   31.0394   29.4900 H           1 DGX       0.0268
     47 H10       -15.5514   31.3156   31.1035 H           1 DGX       0.0268
     48 H11       -17.0731   28.8929   30.0903 H           1 DGX       0.0269
     49 H12       -17.5934   30.0552   31.2974 H           1 DGX       0.0269
     50 H13       -15.9692   29.2512   32.9137 H           1 DGX       0.0332
     51 H14       -14.9703   27.3438   30.7921 H           1 DGX       0.0310
     52 H15       -13.9869   27.6290   33.6582 H           1 DGX       0.0293
     53 H16       -13.3143   26.5687   32.4311 H           1 DGX       0.0293
     54 H17       -15.3706   25.3476   32.1880 H           1 DGX       0.0602
     55 H18       -15.3357   24.5817   34.4982 H           1 DGX       0.2098
     56 H19       -18.9972   27.6441   33.3460 H           1 DGX       0.2102
     57 H20       -17.0964   26.3029   30.7339 H           1 DGX       0.0295
     58 H21       -18.6046   27.2092   30.8886 H           1 DGX       0.0295
     59 H22       -18.4262   24.5637   31.5164 H           1 DGX       0.0301
     60 H23       -19.5451   25.6656   32.3042 H           1 DGX       0.0301
     61 H24       -17.1538   24.3253   33.3385 H           1 DGX       0.0550
     62 H25       -16.1383   26.2804   35.7243 H           1 DGX       0.0239
     63 H26       -17.4468   27.4153   35.4246 H           1 DGX       0.0239
     64 H27       -15.8044   27.8801   35.0507 H           1 DGX       0.0239
     65 H28       -12.6122   30.8500   31.8857 H           1 DGX       0.0235
     66 H29       -12.6857   29.5242   33.0384 H           1 DGX       0.0235
     67 H30       -14.0965   30.5389   32.7694 H           1 DGX       0.0235
     68 H31       -20.6074   25.5211   34.3061 H           1 DGX       0.0859
     69 H32       -19.6611   26.7307   35.2167 H           1 DGX       0.0859
     70 H33       -17.5234   23.4452   35.5800 H           1 DGX       0.0295
     71 H34       -10.8455   29.4183   26.0534 H           1 DGX       0.0910
     72 H35       -10.1112   29.2754   29.0150 H           1 DGX       0.0340
     73 H36        -9.8662   30.6279   27.9057 H           1 DGX       0.0340
     74 H37        -7.7895   29.2932   28.4810 H           1 DGX       0.0621
     75 H38        -6.9893   29.5204   26.5623 H           1 DGX       0.2099
     76 H39        -8.7272   27.0306   28.5707 H           1 DGX       0.0645
     77 H40        -6.5522   27.5857   27.6170 H           1 DGX       0.2100
     78 H41        -9.2587   27.2947   25.5412 H           1 DGX       0.0621
     79 H42       -10.4674   25.1528   25.7791 H           1 DGX       0.0255
     80 H43       -10.0677   25.0711   27.5048 H           1 DGX       0.0255
     81 H44        -8.7849   24.9337   26.2779 H           1 DGX       0.0255
@<TRIPOS>BOND
     1    11     1   1
     2     1     2   1
     3     2     3   1
     4     3     5   1
     5     3     4   1
     6     4    29   1
     7    29    36   1
     8    29    30   1
     9    30    31   1
    10    31    33   1
    11    31    32   1
    12    33    35   1
    13    33    34   1
    14    35    37   1
    15    36    35   1
    16     5     6   1
    17    11     6   1
    18     6     7   1
    19     7     8   1
    20     8     9   1
    21     9    16   1
    22     9    10   1
    23    10    12   1
    24    10    11   1
    25    11    22   1
    26    12    13   1
    27    13    15   1
    28    13    14   1
    29    15    21   1
    30    15    20   1
    31    15    16   1
    32    16    18   1
    33    16    17   1
    34    18    19   1
    35    20    19   1
    36    20    23   1
    37    23    26   2
    38    23    24   1
    39    24    25   1
    40    25    27   1
    41    27    28   2
    42    27    26   1
    43     1    38   1
    44     1    39   1
    45     2    40   1
    46     2    41   1
    47     3    42   1
    48     5    43   1
    49     5    44   1
    50     6    45   1
    51     7    46   1
    52     7    47   1
    53     8    48   1
    54     8    49   1
    55     9    50   1
    56    10    51   1
    57    12    52   1
    58    12    53   1
    59    13    54   1
    60    14    55   1
    61    17    56   1
    62    18    57   1
    63    18    58   1
    64    19    59   1
    65    19    60   1
    66    20    61   1
    67    21    62   1
    68    21    63   1
    69    21    64   1
    70    22    65   1
    71    22    66   1
    72    22    67   1
    73    24    68   1
    74    24    69   1
    75    26    70   1
    76    29    71   1
    77    30    72   1
    78    30    73   1
    79    31    74   1
    80    32    75   1
    81    33    76   1
    82    34    77   1
    83    35    78   1
    84    37    79   1
    85    37    80   1
    86    37    81   1
@<TRIPOS>SUBSTRUCTURE
     1  DGX      1

