@<TRIPOS>MOLECULE
1igj_ligand_046
    81    86
SMALL
GAST_HUCK
****
This file was generated by PARSER (from files_GN.cpp)

@<TRIPOS>ATOM
      1 C1        -17.0345   28.8568   31.1840 C.3         1 DGX      -0.0448
      2 C2        -16.0974   27.8984   30.4050 C.3         1 DGX      -0.0260
      3 C3        -15.0734   27.2320   31.3614 C.3         1 DGX       0.0620
      4 O3        -15.6682   26.4403   32.4206 O.3         1 DGX      -0.3480
      5 C4        -14.2449   28.3608   32.0302 C.3         1 DGX      -0.0232
      6 C5        -15.1298   29.4005   32.8032 C.3         1 DGX      -0.0330
      7 C6        -14.2413   30.4813   33.4923 C.3         1 DGX      -0.0493
      8 C7        -13.6593   31.5058   32.4915 C.3         1 DGX      -0.0470
      9 C8        -14.7570   32.1917   31.6159 C.3         1 DGX      -0.0079
     10 C9        -15.7086   31.1386   30.9360 C.3         1 DGX      -0.0276
     11 C10       -16.2965   30.0389   31.9355 C.3         1 DGX      -0.0258
     12 C11       -16.7845   31.9104   30.1027 C.3         1 DGX      -0.0223
     13 C12       -16.1674   32.8714   29.0529 C.3         1 DGX       0.0664
     14 O12       -17.2558   33.4609   28.3318 O.3         1 DGX      -0.3909
     15 C13       -15.1751   33.9529   29.6564 C.3         1 DGX       0.0405
     16 C14       -14.1371   33.2479   30.6113 C.3         1 DGX       0.0799
     17 O14       -13.4966   34.2293   31.4445 O.3         1 DGX      -0.3874
     18 C15       -13.0440   32.6828   29.6589 C.3         1 DGX      -0.0200
     19 C16       -13.1171   33.4937   28.3494 C.3         1 DGX      -0.0318
     20 C17       -14.2644   34.5425   28.4942 C.3         1 DGX       0.0177
     21 C18       -16.0232   35.0298   30.4302 C.3         1 DGX      -0.0516
     22 C19       -17.3715   30.6721   32.8971 C.3         1 DGX      -0.0590
     23 C20       -13.8184   35.9531   28.5921 C.2         1 DGX      -0.0063
     24 C21       -12.4588   36.4716   28.6196 C.3         1 DGX       0.1204
     25 O21       -12.6523   37.8844   28.6836 O.3         1 DGX      -0.2665
     26 C22       -14.6582   36.9951   28.5493 C.2         1 DGX       0.0017
     27 C23       -13.9681   38.1553   28.6319 C.2         1 DGX       0.2187
     28 O23       -14.5029   39.3956   28.6524 O.2         1 DGX      -0.3870
     29 C1X       -16.1896   25.1073   32.2171 C.3         1 DGX       0.1624
     30 C2X       -17.6385   25.1068   31.6509 C.3         1 DGX       0.0270
     31 C3X       -18.1604   23.6750   31.3667 C.3         1 DGX       0.0881
     32 O3X       -18.4959   23.0097   32.5817 O.3         1 DGX      -0.3890
     33 C4X       -17.1128   22.8659   30.5534 C.3         1 DGX       0.1070
     34 O4X       -17.5554   21.5206   30.3731 O.3         1 DGX      -0.3867
     35 C5X       -15.7211   22.9102   31.2545 C.3         1 DGX       0.0871
     36 O5X       -15.3010   24.2815   31.4330 O.3         1 DGX      -0.3456
     37 C6X       -14.6264   22.1780   30.4434 C.3         1 DGX      -0.0361
     38 H1        -17.7855   29.2357   30.4906 H           1 DGX       0.0271
     39 H2        -17.5819   28.2476   31.9096 H           1 DGX       0.0271
     40 H3        -15.5714   28.4389   29.6138 H           1 DGX       0.0290
     41 H4        -16.6929   27.1447   29.8990 H           1 DGX       0.0290
     42 H5        -14.3837   26.6240   30.7711 H           1 DGX       0.0597
     43 H6        -13.6605   28.8650   31.2556 H           1 DGX       0.0293
     44 H7        -13.5325   27.9004   32.7224 H           1 DGX       0.0293
     45 H8        -15.5888   28.8313   33.6200 H           1 DGX       0.0307
     46 H9        -13.4178   29.9988   34.0265 H           1 DGX       0.0268
     47 H10       -14.8291   31.0159   34.2419 H           1 DGX       0.0268
     48 H11       -12.9254   31.0049   31.8579 H           1 DGX       0.0269
     49 H12       -13.1206   32.2635   33.0686 H           1 DGX       0.0269
     50 H13       -15.3679   32.7711   32.3132 H           1 DGX       0.0332
     51 H14       -15.1001   30.6001   30.2132 H           1 DGX       0.0310
     52 H15       -17.4397   32.4784   30.7652 H           1 DGX       0.0293
     53 H16       -17.4121   31.2061   29.5571 H           1 DGX       0.0293
     54 H17       -15.6377   32.2414   28.3325 H           1 DGX       0.0602
     55 H18       -16.8706   33.8383   27.5148 H           1 DGX       0.2098
     56 H19       -13.0461   34.8487   30.8411 H           1 DGX       0.2102
     57 H20       -13.2132   31.6286   29.4316 H           1 DGX       0.0295
     58 H21       -12.0490   32.7654   30.1060 H           1 DGX       0.0295
     59 H22       -13.3428   32.8160   27.5217 H           1 DGX       0.0301
     60 H23       -12.1417   33.9202   28.1238 H           1 DGX       0.0301
     61 H24       -14.8224   34.5084   27.5514 H           1 DGX       0.0550
     62 H25       -16.7374   35.5147   29.7653 H           1 DGX       0.0239
     63 H26       -15.3888   35.8056   30.8583 H           1 DGX       0.0239
     64 H27       -16.5835   34.5869   31.2509 H           1 DGX       0.0239
     65 H28       -17.6705   29.9651   33.6758 H           1 DGX       0.0235
     66 H29       -18.2777   30.9479   32.3533 H           1 DGX       0.0235
     67 H30       -17.0004   31.5660   33.3967 H           1 DGX       0.0235
     68 H31       -11.9100   36.2360   27.7054 H           1 DGX       0.0859
     69 H32       -11.9037   36.1312   29.4931 H           1 DGX       0.0859
     70 H33       -15.6450   36.9452   28.4642 H           1 DGX       0.0295
     71 H34       -16.2394   24.6806   33.2226 H           1 DGX       0.0910
     72 H35       -17.6632   25.6459   30.7071 H           1 DGX       0.0340
     73 H36       -18.3126   25.6184   32.3466 H           1 DGX       0.0340
     74 H37       -19.0819   23.7580   30.7845 H           1 DGX       0.0621
     75 H38       -19.0626   22.2597   32.2953 H           1 DGX       0.2099
     76 H39       -17.0197   23.3148   29.5608 H           1 DGX       0.0645
     77 H40       -18.4898   21.5930   30.0898 H           1 DGX       0.2100
     78 H41       -15.7917   22.4234   32.2297 H           1 DGX       0.0621
     79 H42       -13.6687   22.2554   30.9623 H           1 DGX       0.0255
     80 H43       -14.5227   22.6215   29.4504 H           1 DGX       0.0255
     81 H44       -14.8746   21.1189   30.3361 H           1 DGX       0.0255
@<TRIPOS>BOND
     1    11     1   1
     2     1     2   1
     3     2     3   1
     4     3     5   1
     5     3     4   1
     6     4    29   1
     7    29    36   1
     8    29    30   1
     9    30    31   1
    10    31    33   1
    11    31    32   1
    12    33    35   1
    13    33    34   1
    14    35    37   1
    15    36    35   1
    16     5     6   1
    17    11     6   1
    18     6     7   1
    19     7     8   1
    20     8     9   1
    21     9    16   1
    22     9    10   1
    23    10    12   1
    24    10    11   1
    25    11    22   1
    26    12    13   1
    27    13    15   1
    28    13    14   1
    29    15    21   1
    30    15    20   1
    31    15    16   1
    32    16    18   1
    33    16    17   1
    34    18    19   1
    35    20    19   1
    36    20    23   1
    37    23    26   2
    38    23    24   1
    39    24    25   1
    40    25    27   1
    41    27    28   2
    42    27    26   1
    43     1    38   1
    44     1    39   1
    45     2    40   1
    46     2    41   1
    47     3    42   1
    48     5    43   1
    49     5    44   1
    50     6    45   1
    51     7    46   1
    52     7    47   1
    53     8    48   1
    54     8    49   1
    55     9    50   1
    56    10    51   1
    57    12    52   1
    58    12    53   1
    59    13    54   1
    60    14    55   1
    61    17    56   1
    62    18    57   1
    63    18    58   1
    64    19    59   1
    65    19    60   1
    66    20    61   1
    67    21    62   1
    68    21    63   1
    69    21    64   1
    70    22    65   1
    71    22    66   1
    72    22    67   1
    73    24    68   1
    74    24    69   1
    75    26    70   1
    76    29    71   1
    77    30    72   1
    78    30    73   1
    79    31    74   1
    80    32    75   1
    81    33    76   1
    82    34    77   1
    83    35    78   1
    84    37    79   1
    85    37    80   1
    86    37    81   1
@<TRIPOS>SUBSTRUCTURE
     1  DGX      1

