@<TRIPOS>MOLECULE
1igj_ligand_052
    81    86
SMALL
GAST_HUCK
****
This file was generated by PARSER (from files_GN.cpp)

@<TRIPOS>ATOM
      1 C1        -14.0335   30.2496   28.4725 C.3         1 DGX      -0.0448
      2 C2        -12.8431   31.0957   28.9906 C.3         1 DGX      -0.0260
      3 C3        -11.6783   30.1731   29.4458 C.3         1 DGX       0.0620
      4 O3        -11.1071   29.3677   28.3816 O.3         1 DGX      -0.3480
      5 C4        -12.2055   29.2108   30.5479 C.3         1 DGX      -0.0232
      6 C5        -13.4597   28.3756   30.1068 C.3         1 DGX      -0.0330
      7 C6        -13.9291   27.4204   31.2470 C.3         1 DGX      -0.0493
      8 C7        -14.6670   28.1545   32.3911 C.3         1 DGX      -0.0470
      9 C8        -15.8548   29.0455   31.9014 C.3         1 DGX      -0.0079
     10 C9        -15.4017   29.9997   30.7326 C.3         1 DGX      -0.0276
     11 C10       -14.6506   29.2544   29.5359 C.3         1 DGX      -0.0258
     12 C11       -16.6086   30.8857   30.2868 C.3         1 DGX      -0.0223
     13 C12       -17.2402   31.6734   31.4580 C.3         1 DGX       0.0664
     14 O12       -18.2914   32.4796   30.9134 O.3         1 DGX      -0.3909
     15 C13       -17.7342   30.7840   32.6695 C.3         1 DGX       0.0405
     16 C14       -16.5940   29.7779   33.0969 C.3         1 DGX       0.0799
     17 O14       -17.1721   28.7549   33.9322 O.3         1 DGX      -0.3874
     18 C15       -15.6893   30.6327   34.0251 C.3         1 DGX      -0.0200
     19 C16       -16.6647   31.4913   34.8456 C.3         1 DGX      -0.0318
     20 C17       -17.9154   31.7130   33.9457 C.3         1 DGX       0.0177
     21 C18       -19.0411   30.0260   32.2236 C.3         1 DGX      -0.0516
     22 C19       -15.6378   28.3361   28.7214 C.3         1 DGX      -0.0590
     23 C20       -19.1819   31.6334   34.6888 C.2         1 DGX      -0.0063
     24 C21       -20.1936   32.6719   34.6670 C.3         1 DGX       0.1204
     25 O21       -21.2263   32.1195   35.4807 O.3         1 DGX      -0.2665
     26 C22       -19.6129   30.6179   35.4437 C.2         1 DGX       0.0017
     27 C23       -20.8445   30.9060   35.9249 C.2         1 DGX       0.2187
     28 O23       -21.5899   30.1016   36.7142 O.2         1 DGX      -0.3870
     29 C1X       -10.2406   30.0007   27.4153 C.3         1 DGX       0.1624
     30 C2X        -9.5225   28.8913   26.6041 C.3         1 DGX       0.0270
     31 C3X        -8.6757   29.4956   25.4523 C.3         1 DGX       0.0881
     32 O3X        -7.5256   30.1674   25.9648 O.3         1 DGX      -0.3890
     33 C4X        -9.5127   30.4827   24.5911 C.3         1 DGX       0.1070
     34 O4X        -8.6692   31.1537   23.6480 O.3         1 DGX      -0.3867
     35 C5X       -10.2580   31.5099   25.4945 C.3         1 DGX       0.0871
     36 O5X       -11.0106   30.8173   26.5116 O.3         1 DGX      -0.3456
     37 C6X       -11.2328   32.4066   24.6947 C.3         1 DGX      -0.0361
     38 H1        -14.7924   30.9234   28.0757 H           1 DGX       0.0271
     39 H2        -13.6675   29.6815   27.6096 H           1 DGX       0.0271
     40 H3        -13.1602   31.7243   29.8234 H           1 DGX       0.0290
     41 H4        -12.5111   31.7747   28.2069 H           1 DGX       0.0290
     42 H5        -10.8920   30.7922   29.8933 H           1 DGX       0.0597
     43 H6        -12.4400   29.8044   31.4325 H           1 DGX       0.0293
     44 H7        -11.3953   28.5297   30.8279 H           1 DGX       0.0293
     45 H8        -13.0992   27.7243   29.3013 H           1 DGX       0.0307
     46 H9        -13.0698   26.8876   31.6637 H           1 DGX       0.0268
     47 H10       -14.5940   26.6578   30.8339 H           1 DGX       0.0268
     48 H11       -13.9434   28.7624   32.9344 H           1 DGX       0.0269
     49 H12       -15.0367   27.3950   33.0826 H           1 DGX       0.0269
     50 H13       -16.5960   28.3606   31.4815 H           1 DGX       0.0332
     51 H14       -14.6804   30.6852   31.1777 H           1 DGX       0.0310
     52 H15       -17.3748   30.2771   29.8076 H           1 DGX       0.0293
     53 H16       -16.2784   31.6274   29.5575 H           1 DGX       0.0293
     54 H17       -16.4729   32.3734   31.8040 H           1 DGX       0.0602
     55 H18       -18.6300   33.0232   31.6610 H           1 DGX       0.2098
     56 H19       -16.4286   28.2605   34.3330 H           1 DGX       0.2102
     57 H20       -15.0286   31.2771   33.4489 H           1 DGX       0.0295
     58 H21       -15.0759   30.0171   34.6848 H           1 DGX       0.0295
     59 H22       -16.1964   32.4407   35.1276 H           1 DGX       0.0301
     60 H23       -16.9082   30.9568   35.7723 H           1 DGX       0.0301
     61 H24       -17.8499   32.7569   33.6288 H           1 DGX       0.0550
     62 H25       -19.8340   30.7343   31.9822 H           1 DGX       0.0239
     63 H26       -19.4199   29.3702   33.0058 H           1 DGX       0.0239
     64 H27       -18.8666   29.4028   31.3465 H           1 DGX       0.0239
     65 H28       -15.0991   27.7447   27.9776 H           1 DGX       0.0235
     66 H29       -16.3748   28.9328   28.1828 H           1 DGX       0.0235
     67 H30       -16.1772   27.6386   29.3581 H           1 DGX       0.0235
     68 H31       -20.5575   32.8445   33.6496 H           1 DGX       0.0859
     69 H32       -19.8225   33.6048   35.1015 H           1 DGX       0.0859
     70 H33       -19.1253   29.7745   35.6166 H           1 DGX       0.0295
     71 H34        -9.4880   30.6033   27.9369 H           1 DGX       0.0910
     72 H35       -10.2736   28.2182   26.1780 H           1 DGX       0.0340
     73 H36        -8.8824   28.3009   27.2643 H           1 DGX       0.0340
     74 H37        -8.3281   28.6838   24.8131 H           1 DGX       0.0621
     75 H38        -6.9876   29.4904   26.4301 H           1 DGX       0.2099
     76 H39       -10.2532   29.9061   24.0255 H           1 DGX       0.0645
     77 H40        -8.2787   30.4404   23.1000 H           1 DGX       0.2100
     78 H41        -9.5307   32.1677   25.9753 H           1 DGX       0.0621
     79 H42       -11.7529   33.0864   25.3724 H           1 DGX       0.0255
     80 H43       -11.9771   31.8012   24.1724 H           1 DGX       0.0255
     81 H44       -10.6873   33.0031   23.9593 H           1 DGX       0.0255
@<TRIPOS>BOND
     1    11     1   1
     2     1     2   1
     3     2     3   1
     4     3     5   1
     5     3     4   1
     6     4    29   1
     7    29    36   1
     8    29    30   1
     9    30    31   1
    10    31    33   1
    11    31    32   1
    12    33    35   1
    13    33    34   1
    14    35    37   1
    15    36    35   1
    16     5     6   1
    17    11     6   1
    18     6     7   1
    19     7     8   1
    20     8     9   1
    21     9    16   1
    22     9    10   1
    23    10    12   1
    24    10    11   1
    25    11    22   1
    26    12    13   1
    27    13    15   1
    28    13    14   1
    29    15    21   1
    30    15    20   1
    31    15    16   1
    32    16    18   1
    33    16    17   1
    34    18    19   1
    35    20    19   1
    36    20    23   1
    37    23    26   2
    38    23    24   1
    39    24    25   1
    40    25    27   1
    41    27    28   2
    42    27    26   1
    43     1    38   1
    44     1    39   1
    45     2    40   1
    46     2    41   1
    47     3    42   1
    48     5    43   1
    49     5    44   1
    50     6    45   1
    51     7    46   1
    52     7    47   1
    53     8    48   1
    54     8    49   1
    55     9    50   1
    56    10    51   1
    57    12    52   1
    58    12    53   1
    59    13    54   1
    60    14    55   1
    61    17    56   1
    62    18    57   1
    63    18    58   1
    64    19    59   1
    65    19    60   1
    66    20    61   1
    67    21    62   1
    68    21    63   1
    69    21    64   1
    70    22    65   1
    71    22    66   1
    72    22    67   1
    73    24    68   1
    74    24    69   1
    75    26    70   1
    76    29    71   1
    77    30    72   1
    78    30    73   1
    79    31    74   1
    80    32    75   1
    81    33    76   1
    82    34    77   1
    83    35    78   1
    84    37    79   1
    85    37    80   1
    86    37    81   1
@<TRIPOS>SUBSTRUCTURE
     1  DGX      1

