@<TRIPOS>MOLECULE
1igj_ligand_067
    81    86
SMALL
GAST_HUCK
****
This file was generated by PARSER (from files_GN.cpp)

@<TRIPOS>ATOM
      1 C1        -10.0722   26.2200   27.6348 C.3         1 DGX      -0.0448
      2 C2         -9.9406   24.8101   28.2582 C.3         1 DGX      -0.0260
      3 C3        -10.7221   23.7612   27.4245 C.3         1 DGX       0.0620
      4 O3        -10.2001   23.5687   26.0833 O.3         1 DGX      -0.3480
      5 C4        -12.2063   24.1968   27.3059 C.3         1 DGX      -0.0232
      6 C5        -12.3893   25.6440   26.7304 C.3         1 DGX      -0.0330
      7 C6        -13.9032   26.0077   26.6264 C.3         1 DGX      -0.0493
      8 C7        -14.5409   26.2954   28.0051 C.3         1 DGX      -0.0470
      9 C8        -13.7806   27.3930   28.8111 C.3         1 DGX      -0.0079
     10 C9        -12.2435   27.0674   28.9122 C.3         1 DGX      -0.0276
     11 C10       -11.5561   26.7496   27.5036 C.3         1 DGX      -0.0258
     12 C11       -11.5352   28.1820   29.7511 C.3         1 DGX      -0.0223
     13 C12       -12.1816   28.3709   31.1455 C.3         1 DGX       0.0664
     14 O12       -11.4425   29.3441   31.8879 O.3         1 DGX      -0.3909
     15 C13       -13.7225   28.7261   31.1225 C.3         1 DGX       0.0405
     16 C14       -14.4892   27.7093   30.1908 C.3         1 DGX       0.0799
     17 O14       -15.7902   28.2271   29.8457 O.3         1 DGX      -0.3874
     18 C15       -14.7363   26.4891   31.1156 C.3         1 DGX      -0.0200
     19 C16       -15.1085   27.1097   32.4721 C.3         1 DGX      -0.0318
     20 C17       -14.3223   28.4543   32.5746 C.3         1 DGX       0.0177
     21 C18       -13.9085   30.1967   30.5881 C.3         1 DGX      -0.0516
     22 C19       -11.4517   28.0474   26.6182 C.3         1 DGX      -0.0590
     23 C20       -15.0275   29.5617   33.2413 C.2         1 DGX      -0.0063
     24 C21       -16.4489   29.6735   33.5117 C.3         1 DGX       0.1204
     25 O21       -16.5534   30.9584   34.1229 O.3         1 DGX      -0.2665
     26 C22       -14.4163   30.6619   33.6937 C.2         1 DGX       0.0017
     27 C23       -15.3289   31.5105   34.2161 C.2         1 DGX       0.2187
     28 O23       -15.0663   32.7289   34.7409 O.2         1 DGX      -0.3870
     29 C1X        -8.9311   22.9036   25.9067 C.3         1 DGX       0.1624
     30 C2X        -9.0217   21.3711   26.1614 C.3         1 DGX       0.0270
     31 C3X        -7.6450   20.7094   25.9065 C.3         1 DGX       0.0881
     32 O3X        -6.6913   21.1525   26.8693 O.3         1 DGX      -0.3890
     33 C4X        -7.1591   21.0444   24.4757 C.3         1 DGX       0.1070
     34 O4X        -5.8844   20.4491   24.2268 O.3         1 DGX      -0.3867
     35 C5X        -7.1693   22.5849   24.2358 C.3         1 DGX       0.0871
     36 O5X        -8.4724   23.1447   24.5531 O.3         1 DGX      -0.3456
     37 C6X        -6.8113   22.9316   22.7718 C.3         1 DGX      -0.0361
     38 H1         -9.4564   26.9090   28.2115 H           1 DGX       0.0271
     39 H2         -9.6133   26.1679   26.6429 H           1 DGX       0.0271
     40 H3        -10.3128   24.8182   29.2843 H           1 DGX       0.0290
     41 H4         -8.8867   24.5353   28.3195 H           1 DGX       0.0290
     42 H5        -10.7116   22.8160   27.9715 H           1 DGX       0.0597
     43 H6        -12.6576   24.1197   28.2984 H           1 DGX       0.0293
     44 H7        -12.7255   23.4765   26.6647 H           1 DGX       0.0293
     45 H8        -12.0220   25.5943   25.6996 H           1 DGX       0.0307
     46 H9        -14.4502   25.1943   26.1443 H           1 DGX       0.0268
     47 H10       -14.0266   26.8869   25.9926 H           1 DGX       0.0268
     48 H11       -14.5807   25.3676   28.5769 H           1 DGX       0.0269
     49 H12       -15.5716   26.6120   27.8389 H           1 DGX       0.0269
     50 H13       -13.8711   28.3093   28.2253 H           1 DGX       0.0332
     51 H14       -12.1715   26.1573   29.5095 H           1 DGX       0.0310
     52 H15       -11.5480   29.1336   29.2178 H           1 DGX       0.0293
     53 H16       -10.4903   27.9130   29.9194 H           1 DGX       0.0293
     54 H17       -12.0370   27.4246   31.6724 H           1 DGX       0.0602
     55 H18       -10.5020   29.1881   31.6667 H           1 DGX       0.2098
     56 H19       -16.1744   28.6045   30.6626 H           1 DGX       0.2102
     57 H20       -13.8367   25.8781   31.2223 H           1 DGX       0.0295
     58 H21       -15.5455   25.8498   30.7515 H           1 DGX       0.0295
     59 H22       -14.8526   26.4268   33.2879 H           1 DGX       0.0301
     60 H23       -16.1902   27.2552   32.4874 H           1 DGX       0.0301
     61 H24       -13.5041   28.2272   33.2690 H           1 DGX       0.0550
     62 H25       -13.3164   30.9060   31.1648 H           1 DGX       0.0239
     63 H26       -14.9517   30.5085   30.6522 H           1 DGX       0.0239
     64 H27       -13.6069   30.2847   29.5459 H           1 DGX       0.0239
     65 H28       -11.1082   27.8090   25.6069 H           1 DGX       0.0235
     66 H29       -10.7381   28.7593   27.0399 H           1 DGX       0.0235
     67 H30       -12.4077   28.5583   26.5225 H           1 DGX       0.0235
     68 H31       -16.7883   28.9044   34.2086 H           1 DGX       0.0859
     69 H32       -17.0359   29.6447   32.5915 H           1 DGX       0.0859
     70 H33       -13.4423   30.8450   33.6436 H           1 DGX       0.0295
     71 H34        -8.2098   23.3429   26.5949 H           1 DGX       0.0910
     72 H35        -9.7696   20.9330   25.4929 H           1 DGX       0.0340
     73 H36        -9.3294   21.1647   27.1842 H           1 DGX       0.0340
     74 H37        -7.7352   19.6297   26.0126 H           1 DGX       0.0621
     75 H38        -7.2045   21.2226   27.7003 H           1 DGX       0.2099
     76 H39        -7.8681   20.5832   23.7839 H           1 DGX       0.0645
     77 H40        -5.2171   21.1642   24.3097 H           1 DGX       0.2100
     78 H41        -6.4160   23.0583   24.8728 H           1 DGX       0.0621
     79 H42        -6.8368   24.0111   22.6249 H           1 DGX       0.0255
     80 H43        -7.5194   22.4679   22.0845 H           1 DGX       0.0255
     81 H44        -5.8078   22.5774   22.5354 H           1 DGX       0.0255
@<TRIPOS>BOND
     1    11     1   1
     2     1     2   1
     3     2     3   1
     4     3     5   1
     5     3     4   1
     6     4    29   1
     7    29    36   1
     8    29    30   1
     9    30    31   1
    10    31    33   1
    11    31    32   1
    12    33    35   1
    13    33    34   1
    14    35    37   1
    15    36    35   1
    16     5     6   1
    17    11     6   1
    18     6     7   1
    19     7     8   1
    20     8     9   1
    21     9    16   1
    22     9    10   1
    23    10    12   1
    24    10    11   1
    25    11    22   1
    26    12    13   1
    27    13    15   1
    28    13    14   1
    29    15    21   1
    30    15    20   1
    31    15    16   1
    32    16    18   1
    33    16    17   1
    34    18    19   1
    35    20    19   1
    36    20    23   1
    37    23    26   2
    38    23    24   1
    39    24    25   1
    40    25    27   1
    41    27    28   2
    42    27    26   1
    43     1    38   1
    44     1    39   1
    45     2    40   1
    46     2    41   1
    47     3    42   1
    48     5    43   1
    49     5    44   1
    50     6    45   1
    51     7    46   1
    52     7    47   1
    53     8    48   1
    54     8    49   1
    55     9    50   1
    56    10    51   1
    57    12    52   1
    58    12    53   1
    59    13    54   1
    60    14    55   1
    61    17    56   1
    62    18    57   1
    63    18    58   1
    64    19    59   1
    65    19    60   1
    66    20    61   1
    67    21    62   1
    68    21    63   1
    69    21    64   1
    70    22    65   1
    71    22    66   1
    72    22    67   1
    73    24    68   1
    74    24    69   1
    75    26    70   1
    76    29    71   1
    77    30    72   1
    78    30    73   1
    79    31    74   1
    80    32    75   1
    81    33    76   1
    82    34    77   1
    83    35    78   1
    84    37    79   1
    85    37    80   1
    86    37    81   1
@<TRIPOS>SUBSTRUCTURE
     1  DGX      1

