@<TRIPOS>MOLECULE
1igj_ligand_033
    81    86
SMALL
GAST_HUCK
****
This file was generated by PARSER (from files_GN.cpp)

@<TRIPOS>ATOM
      1 C1        -12.5421   28.6029   30.8793 C.3         1 DGX      -0.0448
      2 C2        -11.7879   29.7934   30.2385 C.3         1 DGX      -0.0260
      3 C3        -12.7486   30.6941   29.4121 C.3         1 DGX       0.0620
      4 O3        -13.6920   31.3968   30.2558 O.3         1 DGX      -0.3480
      5 C4        -13.5334   29.8408   28.3817 C.3         1 DGX      -0.0232
      6 C5        -14.2448   28.5797   28.9895 C.3         1 DGX      -0.0330
      7 C6        -14.9859   27.7708   27.8812 C.3         1 DGX      -0.0493
      8 C7        -14.0245   26.9835   26.9557 C.3         1 DGX      -0.0470
      9 C8        -13.0271   26.0686   27.7374 C.3         1 DGX      -0.0079
     10 C9        -12.3025   26.8598   28.8867 C.3         1 DGX      -0.0276
     11 C10       -13.2888   27.6610   29.8563 C.3         1 DGX      -0.0258
     12 C11       -11.3092   25.9058   29.6193 C.3         1 DGX      -0.0223
     13 C12       -10.2809   25.2768   28.6469 C.3         1 DGX       0.0664
     14 O12        -9.3372   24.5163   29.4049 O.3         1 DGX      -0.3909
     15 C13       -10.9228   24.4317   27.4731 C.3         1 DGX       0.0405
     16 C14       -12.0565   25.2782   26.7654 C.3         1 DGX       0.0799
     17 O14       -12.8923   24.4269   25.9550 O.3         1 DGX      -0.3874
     18 C15       -11.2581   26.1376   25.7519 C.3         1 DGX      -0.0200
     19 C16       -10.2250   25.1579   25.1714 C.3         1 DGX      -0.0318
     20 C17        -9.8182   24.2237   26.3442 C.3         1 DGX       0.0177
     21 C18       -11.5009   23.0900   28.0555 C.3         1 DGX      -0.0516
     22 C19       -14.1446   26.6793   30.7427 C.3         1 DGX      -0.0590
     23 C20        -9.4614   22.8434   25.9571 C.2         1 DGX      -0.0063
     24 C21       -10.0594   22.0371   24.9022 C.3         1 DGX       0.1204
     25 O21        -9.2852   20.8367   24.9577 O.3         1 DGX      -0.2665
     26 C22        -8.4884   22.1341   26.5385 C.2         1 DGX       0.0017
     27 C23        -8.3634   20.9339   25.9333 C.2         1 DGX       0.2187
     28 O23        -7.4241   19.9992   26.2062 O.2         1 DGX      -0.3870
     29 C1X       -13.2542   32.6049   30.9173 C.3         1 DGX       0.1624
     30 C2X       -13.3510   33.8328   29.9703 C.3         1 DGX       0.0270
     31 C3X       -13.0633   35.1501   30.7390 C.3         1 DGX       0.0881
     32 O3X       -11.6747   35.2262   31.0706 O.3         1 DGX      -0.3890
     33 C4X       -13.9354   35.2492   32.0222 C.3         1 DGX       0.1070
     34 O4X       -13.5470   36.3833   32.7945 O.3         1 DGX      -0.3867
     35 C5X       -13.8492   33.9416   32.8660 C.3         1 DGX       0.0871
     36 O5X       -14.1324   32.7861   32.0455 O.3         1 DGX      -0.3456
     37 C6X       -14.8450   33.9371   34.0492 C.3         1 DGX      -0.0361
     38 H1        -11.8393   28.0393   31.4946 H           1 DGX       0.0271
     39 H2        -13.2697   29.0299   31.5777 H           1 DGX       0.0271
     40 H3        -10.9845   29.4254   29.5976 H           1 DGX       0.0290
     41 H4        -11.3146   30.3745   31.0316 H           1 DGX       0.0290
     42 H5        -12.1495   31.4142   28.8445 H           1 DGX       0.0597
     43 H6        -12.8366   29.5387   27.5970 H           1 DGX       0.0293
     44 H7        -14.2846   30.4794   27.9086 H           1 DGX       0.0293
     45 H8        -15.0261   28.9753   29.6487 H           1 DGX       0.0307
     46 H9        -15.5836   28.4523   27.2710 H           1 DGX       0.0268
     47 H10       -15.6849   27.0680   28.3414 H           1 DGX       0.0268
     48 H11       -13.4745   27.6979   26.3430 H           1 DGX       0.0269
     49 H12       -14.6248   26.3735   26.2752 H           1 DGX       0.0269
     50 H13       -13.6375   25.3020   28.2212 H           1 DGX       0.0332
     51 H14       -11.6825   27.6034   28.3856 H           1 DGX       0.0310
     52 H15       -11.8465   25.1161   30.1448 H           1 DGX       0.0293
     53 H16       -10.7411   26.4670   30.3583 H           1 DGX       0.0293
     54 H17        -9.7118   26.1164   28.2322 H           1 DGX       0.0602
     55 H18        -8.6290   24.2647   28.7767 H           1 DGX       0.2098
     56 H19       -13.4427   23.9089   26.5791 H           1 DGX       0.2102
     57 H20       -10.7456   26.9728   26.2367 H           1 DGX       0.0295
     58 H21       -11.8958   26.5365   24.9591 H           1 DGX       0.0295
     59 H22        -9.3706   25.6932   24.7440 H           1 DGX       0.0301
     60 H23       -10.7071   24.5957   24.3737 H           1 DGX       0.0301
     61 H24        -8.8715   24.6644   26.6817 H           1 DGX       0.0550
     62 H25       -10.7147   22.5167   28.5430 H           1 DGX       0.0239
     63 H26       -11.9254   22.4591   27.2740 H           1 DGX       0.0239
     64 H27       -12.2909   23.2773   28.7851 H           1 DGX       0.0239
     65 H28       -14.9016   27.2245   31.3116 H           1 DGX       0.0235
     66 H29       -13.5182   26.1517   31.4658 H           1 DGX       0.0235
     67 H30       -14.6661   25.9294   30.1523 H           1 DGX       0.0235
     68 H31        -9.9369   22.4932   23.9176 H           1 DGX       0.0859
     69 H32       -11.1125   21.8255   25.0944 H           1 DGX       0.0859
     70 H33        -7.9190   22.4358   27.2948 H           1 DGX       0.0295
     71 H34       -12.2303   32.4987   31.2848 H           1 DGX       0.0910
     72 H35       -14.3588   33.8780   29.5500 H           1 DGX       0.0340
     73 H36       -12.6426   33.7310   29.1463 H           1 DGX       0.0340
     74 H37       -13.2900   35.9999   30.0911 H           1 DGX       0.0621
     75 H38       -11.2038   35.2686   30.2103 H           1 DGX       0.2099
     76 H39       -14.9737   35.4033   31.7122 H           1 DGX       0.0645
     77 H40       -12.6201   36.2089   33.0658 H           1 DGX       0.2100
     78 H41       -12.8414   33.8500   33.2830 H           1 DGX       0.0621
     79 H42       -14.7528   33.0031   34.6085 H           1 DGX       0.0255
     80 H43       -15.8707   34.0264   33.6889 H           1 DGX       0.0255
     81 H44       -14.6345   34.7658   34.7282 H           1 DGX       0.0255
@<TRIPOS>BOND
     1    11     1   1
     2     1     2   1
     3     2     3   1
     4     3     5   1
     5     3     4   1
     6     4    29   1
     7    29    36   1
     8    29    30   1
     9    30    31   1
    10    31    33   1
    11    31    32   1
    12    33    35   1
    13    33    34   1
    14    35    37   1
    15    36    35   1
    16     5     6   1
    17    11     6   1
    18     6     7   1
    19     7     8   1
    20     8     9   1
    21     9    16   1
    22     9    10   1
    23    10    12   1
    24    10    11   1
    25    11    22   1
    26    12    13   1
    27    13    15   1
    28    13    14   1
    29    15    21   1
    30    15    20   1
    31    15    16   1
    32    16    18   1
    33    16    17   1
    34    18    19   1
    35    20    19   1
    36    20    23   1
    37    23    26   2
    38    23    24   1
    39    24    25   1
    40    25    27   1
    41    27    28   2
    42    27    26   1
    43     1    38   1
    44     1    39   1
    45     2    40   1
    46     2    41   1
    47     3    42   1
    48     5    43   1
    49     5    44   1
    50     6    45   1
    51     7    46   1
    52     7    47   1
    53     8    48   1
    54     8    49   1
    55     9    50   1
    56    10    51   1
    57    12    52   1
    58    12    53   1
    59    13    54   1
    60    14    55   1
    61    17    56   1
    62    18    57   1
    63    18    58   1
    64    19    59   1
    65    19    60   1
    66    20    61   1
    67    21    62   1
    68    21    63   1
    69    21    64   1
    70    22    65   1
    71    22    66   1
    72    22    67   1
    73    24    68   1
    74    24    69   1
    75    26    70   1
    76    29    71   1
    77    30    72   1
    78    30    73   1
    79    31    74   1
    80    32    75   1
    81    33    76   1
    82    34    77   1
    83    35    78   1
    84    37    79   1
    85    37    80   1
    86    37    81   1
@<TRIPOS>SUBSTRUCTURE
     1  DGX      1

