@<TRIPOS>MOLECULE
1igj_ligand_083
    81    86
SMALL
GAST_HUCK
****
This file was generated by PARSER (from files_GN.cpp)

@<TRIPOS>ATOM
      1 C1        -10.6980   26.5530   25.2602 C.3         1 DGX      -0.0448
      2 C2        -11.6436   27.6655   25.7744 C.3         1 DGX      -0.0260
      3 C3        -10.9771   28.5663   26.8305 C.3         1 DGX       0.0620
      4 O3         -9.9603   29.4262   26.2143 O.3         1 DGX      -0.3480
      5 C4        -10.3949   27.6753   27.9769 C.3         1 DGX      -0.0232
      6 C5         -9.4387   26.5431   27.4628 C.3         1 DGX      -0.0330
      7 C6         -8.8397   25.7388   28.6521 C.3         1 DGX      -0.0493
      8 C7         -9.8792   24.8102   29.3202 C.3         1 DGX      -0.0470
      9 C8        -10.6114   23.8678   28.3126 C.3         1 DGX      -0.0079
     10 C9        -11.1813   24.6565   27.0741 C.3         1 DGX      -0.0276
     11 C10       -10.1018   25.6031   26.3724 C.3         1 DGX      -0.0258
     12 C11       -11.9084   23.6607   26.1147 C.3         1 DGX      -0.0223
     13 C12       -12.9916   22.8155   26.8314 C.3         1 DGX       0.0664
     14 O12       -13.6361   21.9731   25.8760 O.3         1 DGX      -0.3909
     15 C13       -12.4542   21.9756   28.0624 C.3         1 DGX       0.0405
     16 C14       -11.6581   22.9229   29.0267 C.3         1 DGX       0.0799
     17 O14       -10.9117   22.1415   29.9549 O.3         1 DGX      -0.3874
     18 C15       -12.7630   23.6357   29.8566 C.3         1 DGX      -0.0200
     19 C16       -13.9786   22.6841   29.9067 C.3         1 DGX      -0.0318
     20 C17       -13.6868   21.4964   28.9374 C.3         1 DGX       0.0177
     21 C18       -11.5731   20.7852   27.5293 C.3         1 DGX      -0.0516
     22 C19        -8.9916   24.7540   25.6448 C.3         1 DGX      -0.0590
     23 C20       -13.5760   20.2010   29.6360 C.2         1 DGX      -0.0063
     24 C21       -12.6523   19.9071   30.6992 C.3         1 DGX       0.1204
     25 O21       -12.9557   18.5644   31.0382 O.3         1 DGX      -0.2665
     26 C22       -14.3073   19.1082   29.3949 C.2         1 DGX       0.0017
     27 C23       -13.9432   18.1228   30.2435 C.2         1 DGX       0.2187
     28 O23       -14.4754   16.8757   30.3005 O.2         1 DGX      -0.3870
     29 C1X       -10.3843   30.4101   25.2225 C.3         1 DGX       0.1624
     30 C2X        -9.4285   31.6453   25.1246 C.3         1 DGX       0.0270
     31 C3X        -9.8746   32.6050   23.9845 C.3         1 DGX       0.0881
     32 O3X       -11.0993   33.2631   24.3262 O.3         1 DGX      -0.3890
     33 C4X       -10.0390   31.8205   22.6508 C.3         1 DGX       0.1070
     34 O4X       -10.5215   32.6879   21.6302 O.3         1 DGX      -0.3867
     35 C5X       -10.9884   30.6058   22.8535 C.3         1 DGX       0.0871
     36 O5X       -10.4930   29.7780   23.9237 O.3         1 DGX      -0.3456
     37 C6X       -11.1193   29.7073   21.6007 C.3         1 DGX      -0.0361
     38 H1        -11.2277   25.9759   24.5044 H           1 DGX       0.0271
     39 H2         -9.8773   27.0537   24.7331 H           1 DGX       0.0271
     40 H3        -12.5534   27.2259   26.1732 H           1 DGX       0.0290
     41 H4        -11.9487   28.2832   24.9358 H           1 DGX       0.0290
     42 H5        -11.7442   29.2067   27.2831 H           1 DGX       0.0597
     43 H6        -11.2366   27.2312   28.5161 H           1 DGX       0.0293
     44 H7         -9.8731   28.3043   28.7022 H           1 DGX       0.0293
     45 H8         -8.5951   27.0622   26.9958 H           1 DGX       0.0307
     46 H9         -8.4408   26.4282   29.4016 H           1 DGX       0.0268
     47 H10        -7.9957   25.1389   28.3056 H           1 DGX       0.0268
     48 H11       -10.6066   25.4217   29.8590 H           1 DGX       0.0269
     49 H12        -9.3436   24.2148   30.0618 H           1 DGX       0.0269
     50 H13        -9.8401   23.1941   27.9306 H           1 DGX       0.0332
     51 H14       -11.9661   25.3077   27.4572 H           1 DGX       0.0310
     52 H15       -11.1902   22.9902   25.6442 H           1 DGX       0.0293
     53 H16       -12.4065   24.2169   25.3212 H           1 DGX       0.0293
     54 H17       -13.7642   23.5115   27.1736 H           1 DGX       0.0602
     55 H18       -14.1086   22.5787   25.2628 H           1 DGX       0.2098
     56 H19       -10.0801   21.8877   29.4948 H           1 DGX       0.2102
     57 H20       -13.0601   24.5728   29.3826 H           1 DGX       0.0295
     58 H21       -12.4185   23.8786   30.8637 H           1 DGX       0.0295
     59 H22       -14.8727   23.2243   29.5778 H           1 DGX       0.0301
     60 H23       -14.1656   22.3597   30.9340 H           1 DGX       0.0301
     61 H24       -14.5578   21.4033   28.2859 H           1 DGX       0.0550
     62 H25       -12.1523   20.1309   26.8817 H           1 DGX       0.0239
     63 H26       -11.1928   20.1704   28.3240 H           1 DGX       0.0239
     64 H27       -10.7103   21.1376   26.9738 H           1 DGX       0.0239
     65 H28        -8.1847   25.3937   25.2863 H           1 DGX       0.0235
     66 H29        -9.4001   24.2330   24.7778 H           1 DGX       0.0235
     67 H30        -8.5418   24.0087   26.2950 H           1 DGX       0.0235
     68 H31       -12.8034   20.5609   31.5579 H           1 DGX       0.0859
     69 H32       -11.6252   19.9581   30.3752 H           1 DGX       0.0859
     70 H33       -15.0054   19.0000   28.6916 H           1 DGX       0.0295
     71 H34       -11.3543   30.7710   25.5283 H           1 DGX       0.0910
     72 H35        -8.4051   31.3188   24.9228 H           1 DGX       0.0340
     73 H36        -9.4307   32.1878   26.0748 H           1 DGX       0.0340
     74 H37        -9.1189   33.3836   23.8434 H           1 DGX       0.0621
     75 H38       -10.8542   33.9379   24.9940 H           1 DGX       0.2099
     76 H39        -9.0547   31.4600   22.3356 H           1 DGX       0.0645
     77 H40       -11.2869   33.1512   22.0228 H           1 DGX       0.2100
     78 H41       -11.9913   30.9730   23.0978 H           1 DGX       0.0621
     79 H42       -11.8143   28.8912   21.8055 H           1 DGX       0.0255
     80 H43       -10.1524   29.2822   21.3276 H           1 DGX       0.0255
     81 H44       -11.5018   30.2748   20.7580 H           1 DGX       0.0255
@<TRIPOS>BOND
     1    11     1   1
     2     1     2   1
     3     2     3   1
     4     3     5   1
     5     3     4   1
     6     4    29   1
     7    29    36   1
     8    29    30   1
     9    30    31   1
    10    31    33   1
    11    31    32   1
    12    33    35   1
    13    33    34   1
    14    35    37   1
    15    36    35   1
    16     5     6   1
    17    11     6   1
    18     6     7   1
    19     7     8   1
    20     8     9   1
    21     9    16   1
    22     9    10   1
    23    10    12   1
    24    10    11   1
    25    11    22   1
    26    12    13   1
    27    13    15   1
    28    13    14   1
    29    15    21   1
    30    15    20   1
    31    15    16   1
    32    16    18   1
    33    16    17   1
    34    18    19   1
    35    20    19   1
    36    20    23   1
    37    23    26   2
    38    23    24   1
    39    24    25   1
    40    25    27   1
    41    27    28   2
    42    27    26   1
    43     1    38   1
    44     1    39   1
    45     2    40   1
    46     2    41   1
    47     3    42   1
    48     5    43   1
    49     5    44   1
    50     6    45   1
    51     7    46   1
    52     7    47   1
    53     8    48   1
    54     8    49   1
    55     9    50   1
    56    10    51   1
    57    12    52   1
    58    12    53   1
    59    13    54   1
    60    14    55   1
    61    17    56   1
    62    18    57   1
    63    18    58   1
    64    19    59   1
    65    19    60   1
    66    20    61   1
    67    21    62   1
    68    21    63   1
    69    21    64   1
    70    22    65   1
    71    22    66   1
    72    22    67   1
    73    24    68   1
    74    24    69   1
    75    26    70   1
    76    29    71   1
    77    30    72   1
    78    30    73   1
    79    31    74   1
    80    32    75   1
    81    33    76   1
    82    34    77   1
    83    35    78   1
    84    37    79   1
    85    37    80   1
    86    37    81   1
@<TRIPOS>SUBSTRUCTURE
     1  DGX      1

