@<TRIPOS>MOLECULE
1igj_ligand_069
    81    86
SMALL
GAST_HUCK
****
This file was generated by PARSER (from files_GN.cpp)

@<TRIPOS>ATOM
      1 C1        -13.5014   30.3939   32.2656 C.3         1 DGX      -0.0448
      2 C2        -12.3215   29.8050   31.4497 C.3         1 DGX      -0.0260
      3 C3        -12.6272   29.8564   29.9276 C.3         1 DGX       0.0620
      4 O3        -12.8174   31.1939   29.4099 O.3         1 DGX      -0.3480
      5 C4        -13.9374   29.0729   29.6505 C.3         1 DGX      -0.0232
      6 C5        -15.1587   29.6030   30.4827 C.3         1 DGX      -0.0330
      7 C6        -16.4567   28.8170   30.1317 C.3         1 DGX      -0.0493
      8 C7        -16.4859   27.3961   30.7419 C.3         1 DGX      -0.0470
      9 C8        -16.2179   27.3653   32.2821 C.3         1 DGX      -0.0079
     10 C9        -14.9276   28.1889   32.6550 C.3         1 DGX      -0.0276
     11 C10       -14.8899   29.6636   32.0461 C.3         1 DGX      -0.0258
     12 C11       -14.7123   28.1217   34.2014 C.3         1 DGX      -0.0223
     13 C12       -14.6048   26.6644   34.7106 C.3         1 DGX       0.0664
     14 O12       -14.3029   26.6695   36.1084 O.3         1 DGX      -0.3909
     15 C13       -15.8686   25.7680   34.3992 C.3         1 DGX       0.0405
     16 C14       -16.2511   25.8950   32.8718 C.3         1 DGX       0.0799
     17 O14       -17.5906   25.3977   32.6879 O.3         1 DGX      -0.3874
     18 C15       -15.3167   24.8661   32.1844 C.3         1 DGX      -0.0200
     19 C16       -15.3289   23.6552   33.1308 C.3         1 DGX      -0.0318
     20 C17       -15.4609   24.2350   34.5710 C.3         1 DGX       0.0177
     21 C18       -17.0638   26.2350   35.3139 C.3         1 DGX      -0.0516
     22 C19       -15.9651   30.5891   32.7288 C.3         1 DGX      -0.0590
     23 C20       -16.2492   23.4200   35.5089 C.2         1 DGX      -0.0063
     24 C21       -17.4711   22.6826   35.2326 C.3         1 DGX       0.1204
     25 O21       -17.8501   22.2042   36.5233 O.3         1 DGX      -0.2665
     26 C22       -15.9908   23.3451   36.8234 C.2         1 DGX       0.0017
     27 C23       -16.9466   22.6165   37.4405 C.2         1 DGX       0.2187
     28 O23       -17.0130   22.3496   38.7632 O.2         1 DGX      -0.3870
     29 C1X       -11.6695   32.0030   29.0800 C.3         1 DGX       0.1624
     30 C2X       -12.1657   33.1132   28.1128 C.3         1 DGX       0.0270
     31 C3X       -11.0513   34.1544   27.8250 C.3         1 DGX       0.0881
     32 O3X       -10.0377   33.5793   26.9973 O.3         1 DGX      -0.3890
     33 C4X       -10.4355   34.6858   29.1512 C.3         1 DGX       0.1070
     34 O4X        -9.3288   35.5452   28.8726 O.3         1 DGX      -0.3867
     35 C5X       -10.0060   33.5013   30.0717 C.3         1 DGX       0.0871
     36 O5X       -11.1186   32.6030   30.2764 O.3         1 DGX      -0.3456
     37 C6X        -9.5215   33.9698   31.4641 C.3         1 DGX      -0.0361
     38 H1        -13.2179   30.4034   33.3194 H           1 DGX       0.0271
     39 H2        -13.5913   31.4484   31.9779 H           1 DGX       0.0271
     40 H3        -12.1263   28.7727   31.7542 H           1 DGX       0.0290
     41 H4        -11.4126   30.3694   31.6617 H           1 DGX       0.0290
     42 H5        -11.8122   29.3675   29.3801 H           1 DGX       0.0597
     43 H6        -13.7606   28.0154   29.8578 H           1 DGX       0.0293
     44 H7        -14.1637   29.1525   28.5829 H           1 DGX       0.0293
     45 H8        -15.3242   30.6270   30.1278 H           1 DGX       0.0307
     46 H9        -16.5609   28.7382   29.0439 H           1 DGX       0.0268
     47 H10       -17.3270   29.3743   30.4869 H           1 DGX       0.0268
     48 H11       -15.7516   26.7804   30.2202 H           1 DGX       0.0269
     49 H12       -17.4720   26.9756   30.5303 H           1 DGX       0.0269
     50 H13       -17.0652   27.8813   32.7397 H           1 DGX       0.0332
     51 H14       -14.0912   27.6477   32.2128 H           1 DGX       0.0310
     52 H15       -15.5193   28.6300   34.7263 H           1 DGX       0.0293
     53 H16       -13.7831   28.6188   34.4753 H           1 DGX       0.0293
     54 H17       -13.7222   26.2406   34.2233 H           1 DGX       0.0602
     55 H18       -13.3569   26.9225   36.1753 H           1 DGX       0.2098
     56 H19       -17.6676   25.1422   31.7459 H           1 DGX       0.2102
     57 H20       -14.3015   25.2534   32.0840 H           1 DGX       0.0295
     58 H21       -15.6738   24.5777   31.1934 H           1 DGX       0.0295
     59 H22       -14.4184   23.0611   33.0096 H           1 DGX       0.0301
     60 H23       -16.1771   23.0238   32.8585 H           1 DGX       0.0301
     61 H24       -14.4412   24.1746   34.9706 H           1 DGX       0.0550
     62 H25       -16.7896   26.2108   36.3692 H           1 DGX       0.0239
     63 H26       -17.9337   25.5902   35.1892 H           1 DGX       0.0239
     64 H27       -17.3777   27.2506   35.0752 H           1 DGX       0.0239
     65 H28       -16.0214   31.5594   32.2313 H           1 DGX       0.0235
     66 H29       -15.7149   30.7795   33.7736 H           1 DGX       0.0235
     67 H30       -16.9627   30.1567   32.7021 H           1 DGX       0.0235
     68 H31       -17.2853   21.8330   34.5690 H           1 DGX       0.0859
     69 H32       -18.2543   23.3299   34.8215 H           1 DGX       0.0859
     70 H33       -15.2211   23.7720   37.2876 H           1 DGX       0.0295
     71 H34       -10.9113   31.3970   28.5726 H           1 DGX       0.0910
     72 H35       -13.0203   33.6288   28.5672 H           1 DGX       0.0340
     73 H36       -12.5023   32.6626   27.1735 H           1 DGX       0.0340
     74 H37       -11.4870   34.9954   27.2761 H           1 DGX       0.0621
     75 H38       -10.4482   33.4899   26.1105 H           1 DGX       0.2099
     76 H39       -11.1957   35.2774   29.6733 H           1 DGX       0.0645
     77 H40        -9.7223   36.3507   28.4729 H           1 DGX       0.2100
     78 H41        -9.1828   32.9545   29.6019 H           1 DGX       0.0621
     79 H42        -9.2265   33.1063   32.0642 H           1 DGX       0.0255
     80 H43       -10.3194   34.5005   31.9899 H           1 DGX       0.0255
     81 H44        -8.6579   34.6310   31.3702 H           1 DGX       0.0255
@<TRIPOS>BOND
     1    11     1   1
     2     1     2   1
     3     2     3   1
     4     3     5   1
     5     3     4   1
     6     4    29   1
     7    29    36   1
     8    29    30   1
     9    30    31   1
    10    31    33   1
    11    31    32   1
    12    33    35   1
    13    33    34   1
    14    35    37   1
    15    36    35   1
    16     5     6   1
    17    11     6   1
    18     6     7   1
    19     7     8   1
    20     8     9   1
    21     9    16   1
    22     9    10   1
    23    10    12   1
    24    10    11   1
    25    11    22   1
    26    12    13   1
    27    13    15   1
    28    13    14   1
    29    15    21   1
    30    15    20   1
    31    15    16   1
    32    16    18   1
    33    16    17   1
    34    18    19   1
    35    20    19   1
    36    20    23   1
    37    23    26   2
    38    23    24   1
    39    24    25   1
    40    25    27   1
    41    27    28   2
    42    27    26   1
    43     1    38   1
    44     1    39   1
    45     2    40   1
    46     2    41   1
    47     3    42   1
    48     5    43   1
    49     5    44   1
    50     6    45   1
    51     7    46   1
    52     7    47   1
    53     8    48   1
    54     8    49   1
    55     9    50   1
    56    10    51   1
    57    12    52   1
    58    12    53   1
    59    13    54   1
    60    14    55   1
    61    17    56   1
    62    18    57   1
    63    18    58   1
    64    19    59   1
    65    19    60   1
    66    20    61   1
    67    21    62   1
    68    21    63   1
    69    21    64   1
    70    22    65   1
    71    22    66   1
    72    22    67   1
    73    24    68   1
    74    24    69   1
    75    26    70   1
    76    29    71   1
    77    30    72   1
    78    30    73   1
    79    31    74   1
    80    32    75   1
    81    33    76   1
    82    34    77   1
    83    35    78   1
    84    37    79   1
    85    37    80   1
    86    37    81   1
@<TRIPOS>SUBSTRUCTURE
     1  DGX      1

