@<TRIPOS>MOLECULE
1igj_ligand_079
    81    86
SMALL
GAST_HUCK
****
This file was generated by PARSER (from files_GN.cpp)

@<TRIPOS>ATOM
      1 C1        -13.6888   25.1149   29.7028 C.3         1 DGX      -0.0448
      2 C2        -13.8201   25.2998   31.2512 C.3         1 DGX      -0.0260
      3 C3        -15.0693   26.1271   31.6883 C.3         1 DGX       0.0620
      4 O3        -16.4195   25.6771   31.3819 O.3         1 DGX      -0.3480
      5 C4        -14.9666   27.4908   30.9683 C.3         1 DGX      -0.0232
      6 C5        -15.0083   27.2932   29.4102 C.3         1 DGX      -0.0330
      7 C6        -15.1763   28.6582   28.6830 C.3         1 DGX      -0.0493
      8 C7        -13.8743   29.4885   28.7117 C.3         1 DGX      -0.0470
      9 C8        -12.6773   28.6705   28.1405 C.3         1 DGX      -0.0079
     10 C9        -12.4645   27.3215   28.9236 C.3         1 DGX      -0.0276
     11 C10       -13.7936   26.4460   28.8540 C.3         1 DGX      -0.0258
     12 C11       -11.1394   26.5616   28.5697 C.3         1 DGX      -0.0223
     13 C12        -9.9157   27.4900   28.3616 C.3         1 DGX       0.0664
     14 O12        -8.7869   26.7189   27.9296 O.3         1 DGX      -0.3909
     15 C13       -10.1917   28.6979   27.3725 C.3         1 DGX       0.0405
     16 C14       -11.4074   29.5409   27.8933 C.3         1 DGX       0.0799
     17 O14       -11.7945   30.4946   26.8909 O.3         1 DGX      -0.3874
     18 C15       -10.8309   30.3693   29.0640 C.3         1 DGX      -0.0200
     19 C16        -9.4565   30.8103   28.5288 C.3         1 DGX      -0.0318
     20 C17        -9.0124   29.7446   27.4739 C.3         1 DGX       0.0177
     21 C18       -10.4548   28.0927   25.9376 C.3         1 DGX      -0.0516
     22 C19       -14.1113   25.9383   27.3819 C.3         1 DGX      -0.0590
     23 C20        -8.5613   30.2963   26.1831 C.2         1 DGX      -0.0063
     24 C21        -7.3282   29.8870   25.5498 C.3         1 DGX       0.1204
     25 O21        -7.3814   30.5432   24.2854 O.3         1 DGX      -0.2665
     26 C22        -9.2164   31.1132   25.3515 C.2         1 DGX       0.0017
     27 C23        -8.5249   31.2530   24.2035 C.2         1 DGX       0.2187
     28 O23        -8.9003   31.9826   23.1306 O.2         1 DGX      -0.3870
     29 C1X       -16.9047   24.3362   31.4239 C.3         1 DGX       0.1624
     30 C2X       -18.1455   24.2927   30.4941 C.3         1 DGX       0.0270
     31 C3X       -18.4899   22.8460   30.0478 C.3         1 DGX       0.0881
     32 O3X       -19.0807   22.1847   31.1711 O.3         1 DGX      -0.3890
     33 C4X       -17.2445   22.0460   29.5580 C.3         1 DGX       0.1070
     34 O4X       -17.5847   20.6894   29.2853 O.3         1 DGX      -0.3867
     35 C5X       -16.1340   22.1270   30.6409 C.3         1 DGX       0.0871
     36 O5X       -15.8823   23.4967   30.9280 O.3         1 DGX      -0.3456
     37 C6X       -14.7525   21.5752   30.2335 C.3         1 DGX      -0.0361
     38 H1        -12.7451   24.6055   29.4934 H           1 DGX       0.0271
     39 H2        -14.4621   24.4218   29.3545 H           1 DGX       0.0271
     40 H3        -12.9129   25.7803   31.6221 H           1 DGX       0.0290
     41 H4        -13.8413   24.3374   31.7622 H           1 DGX       0.0290
     42 H5        -15.0072   26.2870   32.7736 H           1 DGX       0.0597
     43 H6        -14.0429   27.9890   31.2929 H           1 DGX       0.0293
     44 H7        -15.8013   28.1191   31.2831 H           1 DGX       0.0293
     45 H8        -15.9190   26.7369   29.1757 H           1 DGX       0.0307
     46 H9        -15.9888   29.2248   29.1460 H           1 DGX       0.0268
     47 H10       -15.4688   28.4826   27.6472 H           1 DGX       0.0268
     48 H11       -13.6606   29.8153   29.7299 H           1 DGX       0.0269
     49 H12       -14.0586   30.3790   28.1094 H           1 DGX       0.0269
     50 H13       -12.9835   28.3972   27.1350 H           1 DGX       0.0332
     51 H14       -12.2916   27.6089   29.9630 H           1 DGX       0.0310
     52 H15       -11.2592   25.9506   27.6801 H           1 DGX       0.0293
     53 H16       -10.8960   25.8757   29.3854 H           1 DGX       0.0293
     54 H17        -9.6388   27.8766   29.3499 H           1 DGX       0.0602
     55 H18        -8.5758   26.1167   28.6801 H           1 DGX       0.2098
     56 H19       -12.3314   31.1819   27.3409 H           1 DGX       0.2102
     57 H20       -10.7253   29.7754   29.9676 H           1 DGX       0.0295
     58 H21       -11.4478   31.2360   29.3063 H           1 DGX       0.0295
     59 H22        -8.7339   30.8883   29.3412 H           1 DGX       0.0301
     60 H23        -9.5598   31.7941   28.0744 H           1 DGX       0.0301
     61 H24        -8.1336   29.2450   27.8980 H           1 DGX       0.0550
     62 H25        -9.5685   27.5663   25.5775 H           1 DGX       0.0239
     63 H26       -10.7145   28.8655   25.2171 H           1 DGX       0.0239
     64 H27       -11.2864   27.3895   25.9263 H           1 DGX       0.0239
     65 H28       -15.0365   25.3613   27.3699 H           1 DGX       0.0235
     66 H29       -13.3209   25.2890   26.9987 H           1 DGX       0.0235
     67 H30       -14.2568   26.7475   26.6674 H           1 DGX       0.0235
     68 H31        -7.2926   28.8046   25.4169 H           1 DGX       0.0859
     69 H32        -6.4641   30.2202   26.1224 H           1 DGX       0.0859
     70 H33       -10.1045   31.5227   25.5004 H           1 DGX       0.0295
     71 H34       -17.1769   24.0599   32.4429 H           1 DGX       0.0910
     72 H35       -17.9373   24.8853   29.5991 H           1 DGX       0.0340
     73 H36       -19.0158   24.7602   30.9788 H           1 DGX       0.0340
     74 H37       -19.2282   22.8912   29.2435 H           1 DGX       0.0621
     75 H38       -19.8593   22.7429   31.4085 H           1 DGX       0.2099
     76 H39       -16.8921   22.4859   28.6283 H           1 DGX       0.0645
     77 H40       -18.2100   20.4509   30.0082 H           1 DGX       0.2100
     78 H41       -16.4618   21.6515   31.5767 H           1 DGX       0.0621
     79 H42       -14.0318   21.7526   31.0379 H           1 DGX       0.0255
     80 H43       -14.3651   22.0793   29.3329 H           1 DGX       0.0255
     81 H44       -14.7923   20.4917   30.0586 H           1 DGX       0.0255
@<TRIPOS>BOND
     1    11     1   1
     2     1     2   1
     3     2     3   1
     4     3     5   1
     5     3     4   1
     6     4    29   1
     7    29    36   1
     8    29    30   1
     9    30    31   1
    10    31    33   1
    11    31    32   1
    12    33    35   1
    13    33    34   1
    14    35    37   1
    15    36    35   1
    16     5     6   1
    17    11     6   1
    18     6     7   1
    19     7     8   1
    20     8     9   1
    21     9    16   1
    22     9    10   1
    23    10    12   1
    24    10    11   1
    25    11    22   1
    26    12    13   1
    27    13    15   1
    28    13    14   1
    29    15    21   1
    30    15    20   1
    31    15    16   1
    32    16    18   1
    33    16    17   1
    34    18    19   1
    35    20    19   1
    36    20    23   1
    37    23    26   2
    38    23    24   1
    39    24    25   1
    40    25    27   1
    41    27    28   2
    42    27    26   1
    43     1    38   1
    44     1    39   1
    45     2    40   1
    46     2    41   1
    47     3    42   1
    48     5    43   1
    49     5    44   1
    50     6    45   1
    51     7    46   1
    52     7    47   1
    53     8    48   1
    54     8    49   1
    55     9    50   1
    56    10    51   1
    57    12    52   1
    58    12    53   1
    59    13    54   1
    60    14    55   1
    61    17    56   1
    62    18    57   1
    63    18    58   1
    64    19    59   1
    65    19    60   1
    66    20    61   1
    67    21    62   1
    68    21    63   1
    69    21    64   1
    70    22    65   1
    71    22    66   1
    72    22    67   1
    73    24    68   1
    74    24    69   1
    75    26    70   1
    76    29    71   1
    77    30    72   1
    78    30    73   1
    79    31    74   1
    80    32    75   1
    81    33    76   1
    82    34    77   1
    83    35    78   1
    84    37    79   1
    85    37    80   1
    86    37    81   1
@<TRIPOS>SUBSTRUCTURE
     1  DGX      1

