@<TRIPOS>MOLECULE
1igj_ligand_028
    81    86
SMALL
GAST_HUCK
****
This file was generated by PARSER (from files_GN.cpp)

@<TRIPOS>ATOM
      1 C1        -11.7768   28.7403   30.4967 C.3         1 DGX      -0.0448
      2 C2        -12.1241   28.3822   29.0267 C.3         1 DGX      -0.0260
      3 C3        -12.4265   29.6644   28.2044 C.3         1 DGX       0.0620
      4 O3        -11.2723   30.5389   28.1691 O.3         1 DGX      -0.3480
      5 C4        -13.6033   30.4197   28.8773 C.3         1 DGX      -0.0232
      6 C5        -13.3381   30.7630   30.3859 C.3         1 DGX      -0.0330
      7 C6        -14.5453   31.5379   30.9982 C.3         1 DGX      -0.0493
      8 C7        -15.7583   30.6280   31.3033 C.3         1 DGX      -0.0470
      9 C8        -15.3922   29.4096   32.2059 C.3         1 DGX      -0.0079
     10 C9        -14.1721   28.6106   31.6131 C.3         1 DGX      -0.0276
     11 C10       -12.9039   29.5234   31.2778 C.3         1 DGX      -0.0258
     12 C11       -13.8679   27.3867   32.5369 C.3         1 DGX      -0.0223
     13 C12       -15.1003   26.4864   32.8042 C.3         1 DGX       0.0664
     14 O12       -14.6623   25.3963   33.6253 O.3         1 DGX      -0.3909
     15 C13       -16.3561   27.2397   33.4085 C.3         1 DGX       0.0405
     16 C14       -16.6568   28.5241   32.5485 C.3         1 DGX       0.0799
     17 O14       -17.5954   29.3746   33.2296 O.3         1 DGX      -0.3874
     18 C15       -17.4362   27.9659   31.3268 C.3         1 DGX      -0.0200
     19 C16       -18.3216   26.8353   31.8858 C.3         1 DGX      -0.0318
     20 C17       -17.6490   26.3405   33.2028 C.3         1 DGX       0.0177
     21 C18       -16.0553   27.5849   34.9130 C.3         1 DGX      -0.0516
     22 C19       -12.2121   30.0508   32.5908 C.3         1 DGX      -0.0590
     23 C20       -18.6023   26.2162   34.3205 C.2         1 DGX      -0.0063
     24 C21       -18.7783   25.0034   35.0963 C.3         1 DGX       0.1204
     25 O21       -19.7735   25.3820   36.0430 O.3         1 DGX      -0.2665
     26 C22       -19.4236   27.1600   34.7909 C.2         1 DGX       0.0017
     27 C23       -20.1307   26.6641   35.8311 C.2         1 DGX       0.2187
     28 O23       -21.0560   27.3358   36.5501 O.2         1 DGX      -0.3870
     29 C1X       -10.3363   30.5168   27.0685 C.3         1 DGX       0.1624
     30 C2X        -9.6926   29.1304   26.7838 C.3         1 DGX       0.0270
     31 C3X        -8.7527   29.1852   25.5544 C.3         1 DGX       0.0881
     32 O3X        -7.5600   29.9163   25.8603 O.3         1 DGX      -0.3890
     33 C4X        -9.4754   29.8244   24.3369 C.3         1 DGX       0.1070
     34 O4X        -8.5609   29.9715   23.2498 O.3         1 DGX      -0.3867
     35 C5X       -10.0750   31.2031   24.7402 C.3         1 DGX       0.0871
     36 O5X       -10.9567   31.0531   25.8796 O.3         1 DGX      -0.3456
     37 C6X       -10.8621   31.8810   23.5953 C.3         1 DGX      -0.0361
     38 H1        -11.4981   27.8238   31.0173 H           1 DGX       0.0271
     39 H2        -10.8646   29.3437   30.4677 H           1 DGX       0.0271
     40 H3        -12.9802   27.7040   28.9887 H           1 DGX       0.0290
     41 H4        -11.2806   27.8455   28.5905 H           1 DGX       0.0290
     42 H5        -12.7387   29.3893   27.1920 H           1 DGX       0.0597
     43 H6        -14.5044   29.8079   28.7777 H           1 DGX       0.0293
     44 H7        -13.7803   31.3450   28.3189 H           1 DGX       0.0293
     45 H8        -12.5078   31.4769   30.3668 H           1 DGX       0.0307
     46 H9        -14.8630   32.3345   30.3180 H           1 DGX       0.0268
     47 H10       -14.2316   32.0273   31.9237 H           1 DGX       0.0268
     48 H11       -16.1863   30.2817   30.3623 H           1 DGX       0.0269
     49 H12       -16.5166   31.2383   31.8001 H           1 DGX       0.0269
     50 H13       -15.0657   29.8268   33.1609 H           1 DGX       0.0332
     51 H14       -14.5163   28.1918   30.6648 H           1 DGX       0.0310
     52 H15       -13.4636   27.7225   33.4904 H           1 DGX       0.0293
     53 H16       -13.1181   26.7473   32.0713 H           1 DGX       0.0293
     54 H17       -15.3700   26.0389   31.8428 H           1 DGX       0.0602
     55 H18       -15.4728   24.9950   33.9976 H           1 DGX       0.2098
     56 H19       -17.0995   29.8080   33.9577 H           1 DGX       0.2102
     57 H20       -16.7608   27.5601   30.5712 H           1 DGX       0.0295
     58 H21       -18.0479   28.7360   30.8483 H           1 DGX       0.0295
     59 H22       -18.4052   26.0236   31.1567 H           1 DGX       0.0301
     60 H23       -19.3280   27.2278   32.0540 H           1 DGX       0.0301
     61 H24       -17.3226   25.3141   33.0025 H           1 DGX       0.0550
     62 H25       -15.9080   26.6721   35.4933 H           1 DGX       0.0239
     63 H26       -16.8732   28.1362   35.3764 H           1 DGX       0.0239
     64 H27       -15.1604   28.1984   35.0135 H           1 DGX       0.0239
     65 H28       -11.4269   30.7740   32.3564 H           1 DGX       0.0235
     66 H29       -11.7399   29.2400   33.1440 H           1 DGX       0.0235
     67 H30       -12.9121   30.5447   33.2598 H           1 DGX       0.0235
     68 H31       -17.8535   24.7218   35.6066 H           1 DGX       0.0859
     69 H32       -19.1355   24.1792   34.4761 H           1 DGX       0.0859
     70 H33       -19.5174   28.0799   34.4407 H           1 DGX       0.0295
     71 H34        -9.5443   31.2056   27.3715 H           1 DGX       0.0910
     72 H35       -10.4771   28.4034   26.5705 H           1 DGX       0.0340
     73 H36        -9.1317   28.7902   27.6592 H           1 DGX       0.0340
     74 H37        -8.4624   28.1637   25.2967 H           1 DGX       0.0621
     75 H38        -7.0004   29.3207   26.4011 H           1 DGX       0.2099
     76 H39       -10.2843   29.1620   24.0133 H           1 DGX       0.0645
     77 H40        -8.6984   29.1679   22.6945 H           1 DGX       0.2100
     78 H41        -9.2567   31.8808   25.0054 H           1 DGX       0.0621
     79 H42       -11.2542   32.8392   23.9399 H           1 DGX       0.0255
     80 H43       -11.6987   31.2557   23.2758 H           1 DGX       0.0255
     81 H44       -10.2088   32.0648   22.7418 H           1 DGX       0.0255
@<TRIPOS>BOND
     1    11     1   1
     2     1     2   1
     3     2     3   1
     4     3     5   1
     5     3     4   1
     6     4    29   1
     7    29    36   1
     8    29    30   1
     9    30    31   1
    10    31    33   1
    11    31    32   1
    12    33    35   1
    13    33    34   1
    14    35    37   1
    15    36    35   1
    16     5     6   1
    17    11     6   1
    18     6     7   1
    19     7     8   1
    20     8     9   1
    21     9    16   1
    22     9    10   1
    23    10    12   1
    24    10    11   1
    25    11    22   1
    26    12    13   1
    27    13    15   1
    28    13    14   1
    29    15    21   1
    30    15    20   1
    31    15    16   1
    32    16    18   1
    33    16    17   1
    34    18    19   1
    35    20    19   1
    36    20    23   1
    37    23    26   2
    38    23    24   1
    39    24    25   1
    40    25    27   1
    41    27    28   2
    42    27    26   1
    43     1    38   1
    44     1    39   1
    45     2    40   1
    46     2    41   1
    47     3    42   1
    48     5    43   1
    49     5    44   1
    50     6    45   1
    51     7    46   1
    52     7    47   1
    53     8    48   1
    54     8    49   1
    55     9    50   1
    56    10    51   1
    57    12    52   1
    58    12    53   1
    59    13    54   1
    60    14    55   1
    61    17    56   1
    62    18    57   1
    63    18    58   1
    64    19    59   1
    65    19    60   1
    66    20    61   1
    67    21    62   1
    68    21    63   1
    69    21    64   1
    70    22    65   1
    71    22    66   1
    72    22    67   1
    73    24    68   1
    74    24    69   1
    75    26    70   1
    76    29    71   1
    77    30    72   1
    78    30    73   1
    79    31    74   1
    80    32    75   1
    81    33    76   1
    82    34    77   1
    83    35    78   1
    84    37    79   1
    85    37    80   1
    86    37    81   1
@<TRIPOS>SUBSTRUCTURE
     1  DGX      1

