@<TRIPOS>MOLECULE
1igj_ligand_048
    81    86
SMALL
GAST_HUCK
****
This file was generated by PARSER (from files_GN.cpp)

@<TRIPOS>ATOM
      1 C1        -15.8995   24.4682   32.0907 C.3         1 DGX      -0.0448
      2 C2        -15.9951   24.4645   30.5409 C.3         1 DGX      -0.0260
      3 C3        -15.3766   25.7467   29.9300 C.3         1 DGX       0.0620
      4 O3        -13.9560   25.7167   30.1863 O.3         1 DGX      -0.3480
      5 C4        -16.0553   26.9969   30.5546 C.3         1 DGX      -0.0232
      6 C5        -15.9717   27.0138   32.1204 C.3         1 DGX      -0.0330
      7 C6        -16.6037   28.3186   32.6888 C.3         1 DGX      -0.0493
      8 C7        -18.1458   28.3192   32.5903 C.3         1 DGX      -0.0470
      9 C8        -18.8182   27.0557   33.2262 C.3         1 DGX      -0.0079
     10 C9        -18.1544   25.7203   32.7145 C.3         1 DGX      -0.0276
     11 C10       -16.5601   25.7125   32.8076 C.3         1 DGX      -0.0258
     12 C11       -18.8768   24.5037   33.3866 C.3         1 DGX      -0.0223
     13 C12       -20.4148   24.5189   33.1667 C.3         1 DGX       0.0664
     14 O12       -20.9729   23.3280   33.7397 O.3         1 DGX      -0.3909
     15 C13       -21.1456   25.8346   33.6649 C.3         1 DGX       0.0405
     16 C14       -20.3957   27.0965   33.0902 C.3         1 DGX       0.0799
     17 O14       -20.8549   28.2582   33.8016 O.3         1 DGX      -0.3874
     18 C15       -20.9275   27.2223   31.6315 C.3         1 DGX      -0.0200
     19 C16       -22.3381   26.5948   31.6022 C.3         1 DGX      -0.0318
     20 C17       -22.5769   25.9253   32.9905 C.3         1 DGX       0.0177
     21 C18       -21.2018   25.8066   35.2351 C.3         1 DGX      -0.0516
     22 C19       -16.0784   25.6425   34.3042 C.3         1 DGX      -0.0590
     23 C20       -23.7250   26.5683   33.6717 C.2         1 DGX      -0.0063
     24 C21       -23.8211   27.9404   34.1441 C.3         1 DGX       0.1204
     25 O21       -25.2206   28.1071   34.3733 O.3         1 DGX      -0.2665
     26 C22       -24.9576   26.0372   33.6724 C.2         1 DGX       0.0017
     27 C23       -25.8537   26.9472   34.1000 C.2         1 DGX       0.2187
     28 O23       -27.1897   26.7679   34.1532 O.2         1 DGX      -0.3870
     29 C1X       -13.0874   26.5225   29.3701 C.3         1 DGX       0.1624
     30 C2X       -11.6814   26.4875   30.0148 C.3         1 DGX       0.0270
     31 C3X       -10.6471   27.2124   29.1172 C.3         1 DGX       0.0881
     32 O3X       -10.8976   28.6191   29.1173 O.3         1 DGX      -0.3890
     33 C4X       -10.6956   26.6692   27.6615 C.3         1 DGX       0.1070
     34 O4X        -9.8464   27.4533   26.8222 O.3         1 DGX      -0.3867
     35 C5X       -12.1568   26.6726   27.1196 C.3         1 DGX       0.0871
     36 O5X       -13.0394   25.9783   28.0334 O.3         1 DGX      -0.3456
     37 C6X       -12.2766   25.9960   25.7338 C.3         1 DGX      -0.0361
     38 H1        -16.3209   23.5354   32.4652 H           1 DGX       0.0271
     39 H2        -14.8338   24.4331   32.3411 H           1 DGX       0.0271
     40 H3        -17.0383   24.3687   30.2372 H           1 DGX       0.0290
     41 H4        -15.4623   23.5913   30.1542 H           1 DGX       0.0290
     42 H5        -15.5668   25.7296   28.8506 H           1 DGX       0.0597
     43 H6        -17.0935   27.0160   30.2242 H           1 DGX       0.0293
     44 H7        -15.5881   27.8965   30.1508 H           1 DGX       0.0293
     45 H8        -14.9031   27.0750   32.3542 H           1 DGX       0.0307
     46 H9        -16.2133   29.1878   32.1532 H           1 DGX       0.0268
     47 H10       -16.3148   28.4463   33.7339 H           1 DGX       0.0268
     48 H11       -18.4286   28.4051   31.5395 H           1 DGX       0.0269
     49 H12       -18.5013   29.2218   33.0916 H           1 DGX       0.0269
     50 H13       -18.6213   27.1194   34.2988 H           1 DGX       0.0332
     51 H14       -18.3962   25.6406   31.6531 H           1 DGX       0.0310
     52 H15       -18.6635   24.4834   34.4543 H           1 DGX       0.0293
     53 H16       -18.5040   23.5681   32.9673 H           1 DGX       0.0293
     54 H17       -20.5691   24.4063   32.0895 H           1 DGX       0.0602
     55 H18       -20.6927   23.3203   34.6787 H           1 DGX       0.2098
     56 H19       -20.5699   29.0362   33.2817 H           1 DGX       0.2102
     57 H20       -20.2880   26.6898   30.9268 H           1 DGX       0.0295
     58 H21       -20.9635   28.2663   31.3116 H           1 DGX       0.0295
     59 H22       -22.3866   25.8371   30.8092 H           1 DGX       0.0301
     60 H23       -23.0760   27.3646   31.3502 H           1 DGX       0.0301
     61 H24       -22.8940   24.8917   32.7936 H           1 DGX       0.0550
     62 H25       -21.8841   25.0218   35.5809 H           1 DGX       0.0239
     63 H26       -21.5512   26.7439   35.6587 H           1 DGX       0.0239
     64 H27       -20.2209   25.6197   35.6706 H           1 DGX       0.0239
     65 H28       -14.9956   25.7661   34.3718 H           1 DGX       0.0235
     66 H29       -16.3206   24.6771   34.7498 H           1 DGX       0.0235
     67 H30       -16.5308   26.4131   34.9254 H           1 DGX       0.0235
     68 H31       -23.4819   28.6578   33.3933 H           1 DGX       0.0859
     69 H32       -23.2808   28.0921   35.0794 H           1 DGX       0.0859
     70 H33       -25.2082   25.1456   33.3041 H           1 DGX       0.0295
     71 H34       -13.4374   27.5575   29.3363 H           1 DGX       0.0910
     72 H35       -11.3786   25.4458   30.1463 H           1 DGX       0.0340
     73 H36       -11.7148   26.9599   30.9990 H           1 DGX       0.0340
     74 H37        -9.6472   27.0543   29.5288 H           1 DGX       0.0621
     75 H38       -10.7644   28.9111   30.0428 H           1 DGX       0.2099
     76 H39       -10.3138   25.6451   27.6576 H           1 DGX       0.0645
     77 H40        -8.9337   27.2986   27.1545 H           1 DGX       0.2100
     78 H41       -12.4976   27.7084   27.0062 H           1 DGX       0.0621
     79 H42       -13.3140   26.0229   25.3961 H           1 DGX       0.0255
     80 H43       -11.9553   24.9544   25.7845 H           1 DGX       0.0255
     81 H44       -11.6624   26.5200   24.9999 H           1 DGX       0.0255
@<TRIPOS>BOND
     1    11     1   1
     2     1     2   1
     3     2     3   1
     4     3     5   1
     5     3     4   1
     6     4    29   1
     7    29    36   1
     8    29    30   1
     9    30    31   1
    10    31    33   1
    11    31    32   1
    12    33    35   1
    13    33    34   1
    14    35    37   1
    15    36    35   1
    16     5     6   1
    17    11     6   1
    18     6     7   1
    19     7     8   1
    20     8     9   1
    21     9    16   1
    22     9    10   1
    23    10    12   1
    24    10    11   1
    25    11    22   1
    26    12    13   1
    27    13    15   1
    28    13    14   1
    29    15    21   1
    30    15    20   1
    31    15    16   1
    32    16    18   1
    33    16    17   1
    34    18    19   1
    35    20    19   1
    36    20    23   1
    37    23    26   2
    38    23    24   1
    39    24    25   1
    40    25    27   1
    41    27    28   2
    42    27    26   1
    43     1    38   1
    44     1    39   1
    45     2    40   1
    46     2    41   1
    47     3    42   1
    48     5    43   1
    49     5    44   1
    50     6    45   1
    51     7    46   1
    52     7    47   1
    53     8    48   1
    54     8    49   1
    55     9    50   1
    56    10    51   1
    57    12    52   1
    58    12    53   1
    59    13    54   1
    60    14    55   1
    61    17    56   1
    62    18    57   1
    63    18    58   1
    64    19    59   1
    65    19    60   1
    66    20    61   1
    67    21    62   1
    68    21    63   1
    69    21    64   1
    70    22    65   1
    71    22    66   1
    72    22    67   1
    73    24    68   1
    74    24    69   1
    75    26    70   1
    76    29    71   1
    77    30    72   1
    78    30    73   1
    79    31    74   1
    80    32    75   1
    81    33    76   1
    82    34    77   1
    83    35    78   1
    84    37    79   1
    85    37    80   1
    86    37    81   1
@<TRIPOS>SUBSTRUCTURE
     1  DGX      1

