@<TRIPOS>MOLECULE
1igj_ligand_037
    81    86
SMALL
GAST_HUCK
****
This file was generated by PARSER (from files_GN.cpp)

@<TRIPOS>ATOM
      1 C1        -14.0672   30.4350   30.3740 C.3         1 DGX      -0.0448
      2 C2        -12.8927   30.1008   31.3333 C.3         1 DGX      -0.0260
      3 C3        -12.1931   28.7606   30.9736 C.3         1 DGX       0.0620
      4 O3        -11.4958   28.9031   29.7096 O.3         1 DGX      -0.3480
      5 C4        -13.2728   27.6481   30.9341 C.3         1 DGX      -0.0232
      6 C5        -14.4001   27.9577   29.8868 C.3         1 DGX      -0.0330
      7 C6        -15.3587   26.7416   29.7393 C.3         1 DGX      -0.0493
      8 C7        -16.2316   26.5266   30.9969 C.3         1 DGX      -0.0470
      9 C8        -17.0134   27.8123   31.4107 C.3         1 DGX      -0.0079
     10 C9        -16.0930   29.0955   31.4882 C.3         1 DGX      -0.0276
     11 C10       -15.1670   29.3087   30.2011 C.3         1 DGX      -0.0258
     12 C11       -16.9579   30.3292   31.8997 C.3         1 DGX      -0.0223
     13 C12       -17.7456   30.0848   33.2164 C.3         1 DGX       0.0664
     14 O12       -18.4430   31.2923   33.5349 O.3         1 DGX      -0.3909
     15 C13       -18.7051   28.8246   33.1855 C.3         1 DGX       0.0405
     16 C14       -17.9002   27.5630   32.6971 C.3         1 DGX       0.0799
     17 O14       -18.8143   26.5058   32.3550 O.3         1 DGX      -0.3874
     18 C15       -17.1219   27.0899   33.9541 C.3         1 DGX      -0.0200
     19 C16       -17.9422   27.5415   35.1793 C.3         1 DGX      -0.0318
     20 C17       -19.1164   28.4439   34.6750 C.3         1 DGX       0.0177
     21 C18       -19.9054   29.1270   32.2138 C.3         1 DGX      -0.0516
     22 C19       -16.0235   29.7509   28.9553 C.3         1 DGX      -0.0590
     23 C20       -20.4750   27.9115   34.9156 C.2         1 DGX      -0.0063
     24 C21       -20.8478   26.6330   35.5050 C.3         1 DGX       0.1204
     25 O21       -22.2702   26.6715   35.4899 O.3         1 DGX      -0.2665
     26 C22       -21.5959   28.6145   34.7131 C.2         1 DGX       0.0017
     27 C23       -22.6787   27.8634   35.0143 C.2         1 DGX       0.2187
     28 O23       -23.9718   28.2186   34.8602 O.2         1 DGX      -0.3870
     29 C1X       -10.3361   28.0886   29.4082 C.3         1 DGX       0.1624
     30 C2X       -10.6830   26.6111   29.0666 C.3         1 DGX       0.0270
     31 C3X        -9.5192   25.8326   28.3996 C.3         1 DGX       0.0881
     32 O3X        -8.5973   25.3727   29.3895 O.3         1 DGX      -0.3890
     33 C4X        -8.8009   26.6616   27.3001 C.3         1 DGX       0.1070
     34 O4X        -7.5811   26.0137   26.9389 O.3         1 DGX      -0.3867
     35 C5X        -8.5189   28.1181   27.7683 C.3         1 DGX       0.0871
     36 O5X        -9.7358   28.7268   28.2577 O.3         1 DGX      -0.3456
     37 C6X        -7.9603   28.9872   26.6174 C.3         1 DGX      -0.0361
     38 H1        -14.5220   31.3715   30.7011 H           1 DGX       0.0271
     39 H2        -13.6131   30.6469   29.4013 H           1 DGX       0.0271
     40 H3        -13.2672   30.0580   32.3620 H           1 DGX       0.0290
     41 H4        -12.1551   30.9080   31.2934 H           1 DGX       0.0290
     42 H5        -11.4822   28.5374   31.7738 H           1 DGX       0.0597
     43 H6        -13.6840   27.5446   31.9423 H           1 DGX       0.0293
     44 H7        -12.8126   26.6909   30.7075 H           1 DGX       0.0293
     45 H8        -13.9003   28.0587   28.9153 H           1 DGX       0.0307
     46 H9        -14.7840   25.8298   29.5419 H           1 DGX       0.0268
     47 H10       -16.0072   26.8910   28.8750 H           1 DGX       0.0268
     48 H11       -15.5957   26.1888   31.8162 H           1 DGX       0.0269
     49 H12       -16.9342   25.7183   30.7819 H           1 DGX       0.0269
     50 H13       -17.7208   27.9852   30.5956 H           1 DGX       0.0332
     51 H14       -15.4154   28.9440   32.3274 H           1 DGX       0.0310
     52 H15       -17.6543   30.5930   31.1050 H           1 DGX       0.0293
     53 H16       -16.3131   31.1932   32.0645 H           1 DGX       0.0293
     54 H17       -16.9966   29.9568   34.0061 H           1 DGX       0.0602
     55 H18       -18.5945   31.2692   34.5013 H           1 DGX       0.2098
     56 H19       -19.2691   26.2586   33.1847 H           1 DGX       0.2102
     57 H20       -16.1302   27.5431   34.0017 H           1 DGX       0.0295
     58 H21       -16.9859   26.0031   33.9567 H           1 DGX       0.0295
     59 H22       -17.2984   28.1170   35.8510 H           1 DGX       0.0301
     60 H23       -18.2645   26.6637   35.7377 H           1 DGX       0.0301
     61 H24       -19.0854   29.3460   35.2956 H           1 DGX       0.0550
     62 H25       -20.4398   30.0273   32.5172 H           1 DGX       0.0239
     63 H26       -20.6179   28.3014   32.1862 H           1 DGX       0.0239
     64 H27       -19.5641   29.2829   31.1926 H           1 DGX       0.0239
     65 H28       -15.4168   29.7592   28.0448 H           1 DGX       0.0235
     66 H29       -16.4215   30.7604   29.0884 H           1 DGX       0.0235
     67 H30       -16.8663   29.0878   28.7770 H           1 DGX       0.0235
     68 H31       -20.5093   26.5519   36.5397 H           1 DGX       0.0859
     69 H32       -20.4915   25.7869   34.9184 H           1 DGX       0.0859
     70 H33       -21.6408   29.5532   34.3886 H           1 DGX       0.0295
     71 H34        -9.6316   28.1339   30.2455 H           1 DGX       0.0910
     72 H35       -11.5416   26.6079   28.3899 H           1 DGX       0.0340
     73 H36       -10.9556   26.0766   29.9764 H           1 DGX       0.0340
     74 H37        -9.9307   24.9318   27.9360 H           1 DGX       0.0621
     75 H38        -7.9231   26.0773   29.4799 H           1 DGX       0.2099
     76 H39        -9.4411   26.6903   26.4160 H           1 DGX       0.0645
     77 H40        -6.9651   26.2284   27.6724 H           1 DGX       0.2100
     78 H41        -7.7700   28.1068   28.5674 H           1 DGX       0.0621
     79 H42        -7.7468   29.9932   26.9802 H           1 DGX       0.0255
     80 H43        -8.6794   29.0542   25.7983 H           1 DGX       0.0255
     81 H44        -7.0305   28.5614   26.2308 H           1 DGX       0.0255
@<TRIPOS>BOND
     1    11     1   1
     2     1     2   1
     3     2     3   1
     4     3     5   1
     5     3     4   1
     6     4    29   1
     7    29    36   1
     8    29    30   1
     9    30    31   1
    10    31    33   1
    11    31    32   1
    12    33    35   1
    13    33    34   1
    14    35    37   1
    15    36    35   1
    16     5     6   1
    17    11     6   1
    18     6     7   1
    19     7     8   1
    20     8     9   1
    21     9    16   1
    22     9    10   1
    23    10    12   1
    24    10    11   1
    25    11    22   1
    26    12    13   1
    27    13    15   1
    28    13    14   1
    29    15    21   1
    30    15    20   1
    31    15    16   1
    32    16    18   1
    33    16    17   1
    34    18    19   1
    35    20    19   1
    36    20    23   1
    37    23    26   2
    38    23    24   1
    39    24    25   1
    40    25    27   1
    41    27    28   2
    42    27    26   1
    43     1    38   1
    44     1    39   1
    45     2    40   1
    46     2    41   1
    47     3    42   1
    48     5    43   1
    49     5    44   1
    50     6    45   1
    51     7    46   1
    52     7    47   1
    53     8    48   1
    54     8    49   1
    55     9    50   1
    56    10    51   1
    57    12    52   1
    58    12    53   1
    59    13    54   1
    60    14    55   1
    61    17    56   1
    62    18    57   1
    63    18    58   1
    64    19    59   1
    65    19    60   1
    66    20    61   1
    67    21    62   1
    68    21    63   1
    69    21    64   1
    70    22    65   1
    71    22    66   1
    72    22    67   1
    73    24    68   1
    74    24    69   1
    75    26    70   1
    76    29    71   1
    77    30    72   1
    78    30    73   1
    79    31    74   1
    80    32    75   1
    81    33    76   1
    82    34    77   1
    83    35    78   1
    84    37    79   1
    85    37    80   1
    86    37    81   1
@<TRIPOS>SUBSTRUCTURE
     1  DGX      1

