@<TRIPOS>MOLECULE
1igj_ligand_049
    81    86
SMALL
GAST_HUCK
****
This file was generated by PARSER (from files_GN.cpp)

@<TRIPOS>ATOM
      1 C1        -14.0457   28.8914   31.3391 C.3         1 DGX      -0.0448
      2 C2        -12.6063   28.4491   31.7235 C.3         1 DGX      -0.0260
      3 C3        -11.9309   27.6010   30.6076 C.3         1 DGX       0.0620
      4 O3        -11.6336   28.4346   29.4538 O.3         1 DGX      -0.3480
      5 C4        -12.8566   26.3943   30.3056 C.3         1 DGX      -0.0232
      6 C5        -14.2713   26.8689   29.8172 C.3         1 DGX      -0.0330
      7 C6        -15.1006   25.6646   29.2953 C.3         1 DGX      -0.0493
      8 C7        -15.5528   24.7396   30.4410 C.3         1 DGX      -0.0470
      9 C8        -16.3103   25.4994   31.5777 C.3         1 DGX      -0.0079
     10 C9        -15.5273   26.7788   32.0738 C.3         1 DGX      -0.0276
     11 C10       -15.0380   27.7368   30.8933 C.3         1 DGX      -0.0258
     12 C11       -16.3681   27.4827   33.1847 C.3         1 DGX      -0.0223
     13 C12       -16.6709   26.5252   34.3662 C.3         1 DGX       0.0664
     14 O12       -17.3456   27.2459   35.3999 O.3         1 DGX      -0.3909
     15 C13       -17.4679   25.2170   33.9681 C.3         1 DGX       0.0405
     16 C14       -16.7753   24.5198   32.7310 C.3         1 DGX       0.0799
     17 O14       -17.7032   23.5885   32.1377 O.3         1 DGX      -0.3874
     18 C15       -15.6621   23.6600   33.3859 C.3         1 DGX      -0.0200
     19 C16       -16.3554   23.0444   34.6082 C.3         1 DGX      -0.0318
     20 C17       -17.3196   24.1468   35.1410 C.3         1 DGX       0.0177
     21 C18       -18.9538   25.6047   33.6151 C.3         1 DGX      -0.0516
     22 C19       -16.2561   28.4774   30.2251 C.3         1 DGX      -0.0590
     23 C20       -18.5526   23.6522   35.7766 C.2         1 DGX      -0.0063
     24 C21       -19.1534   22.3390   35.6370 C.3         1 DGX       0.1204
     25 O21       -20.3302   22.4489   36.4365 O.3         1 DGX      -0.2665
     26 C22       -19.3142   24.3941   36.5845 C.2         1 DGX       0.0017
     27 C23       -20.3894   23.6781   36.9829 C.2         1 DGX       0.2187
     28 O23       -21.3744   24.1194   37.7951 O.2         1 DGX      -0.3870
     29 C1X       -10.9294   27.8612   28.3252 C.3         1 DGX       0.1624
     30 C2X       -11.9348   27.4684   27.2046 C.3         1 DGX       0.0270
     31 C3X       -11.2110   27.0190   25.9121 C.3         1 DGX       0.0881
     32 O3X       -10.5929   25.7486   26.1239 O.3         1 DGX      -0.3890
     33 C4X       -10.1950   28.1078   25.4697 C.3         1 DGX       0.1070
     34 O4X        -9.4786   27.6862   24.3083 O.3         1 DGX      -0.3867
     35 C5X        -9.2523   28.4967   26.6500 C.3         1 DGX       0.0871
     36 O5X       -10.0285   28.8724   27.8174 O.3         1 DGX      -0.3456
     37 C6X        -8.3394   29.6936   26.2915 C.3         1 DGX      -0.0361
     38 H1        -14.4627   29.4570   32.1730 H           1 DGX       0.0271
     39 H2        -13.9299   29.6084   30.5188 H           1 DGX       0.0271
     40 H3        -12.6541   27.8717   32.6498 H           1 DGX       0.0290
     41 H4        -11.9937   29.3344   31.9242 H           1 DGX       0.0290
     42 H5        -10.9808   27.2289   31.0048 H           1 DGX       0.0597
     43 H6        -12.9414   25.7926   31.2126 H           1 DGX       0.0293
     44 H7        -12.3783   25.7483   29.5689 H           1 DGX       0.0293
     45 H8        -14.1218   27.5163   28.9505 H           1 DGX       0.0307
     46 H9        -14.5148   25.0817   28.5794 H           1 DGX       0.0268
     47 H10       -15.9781   26.0267   28.7574 H           1 DGX       0.0268
     48 H11       -14.6762   24.2288   30.8463 H           1 DGX       0.0269
     49 H12       -16.1987   23.9756   30.0004 H           1 DGX       0.0269
     50 H13       -17.2354   25.8577   31.1179 H           1 DGX       0.0332
     51 H14       -14.6292   26.4201   32.5771 H           1 DGX       0.0310
     52 H15       -17.3042   27.8669   32.7778 H           1 DGX       0.0293
     53 H16       -15.8118   28.3304   33.5855 H           1 DGX       0.0293
     54 H17       -15.6996   26.2472   34.7870 H           1 DGX       0.0602
     55 H18       -16.6978   27.9056   35.7271 H           1 DGX       0.2098
     56 H19       -17.1691   22.9298   31.6479 H           1 DGX       0.2102
     57 H20       -14.8180   24.2738   33.7025 H           1 DGX       0.0295
     58 H21       -15.2906   22.8757   32.7197 H           1 DGX       0.0295
     59 H22       -15.6218   22.7389   35.3590 H           1 DGX       0.0301
     60 H23       -16.8885   22.1530   34.2753 H           1 DGX       0.0301
     61 H24       -16.7647   24.5953   35.9729 H           1 DGX       0.0550
     62 H25       -19.4245   26.1568   34.4286 H           1 DGX       0.0239
     63 H26       -19.5611   24.7180   33.4288 H           1 DGX       0.0239
     64 H27       -19.0050   26.2265   32.7219 H           1 DGX       0.0239
     65 H28       -15.9494   29.0076   29.3200 H           1 DGX       0.0235
     66 H29       -16.6834   29.2175   30.9040 H           1 DGX       0.0235
     67 H30       -17.0521   27.7931   29.9427 H           1 DGX       0.0235
     68 H31       -18.5064   21.5547   36.0354 H           1 DGX       0.0859
     69 H32       -19.4172   22.1279   34.5988 H           1 DGX       0.0859
     70 H33       -19.1352   25.3341   36.8502 H           1 DGX       0.0295
     71 H34       -10.3370   26.9919   28.6294 H           1 DGX       0.0910
     72 H35       -12.5727   28.3303   26.9801 H           1 DGX       0.0340
     73 H36       -12.5655   26.6438   27.5205 H           1 DGX       0.0340
     74 H37       -11.9606   26.8783   25.1272 H           1 DGX       0.0621
     75 H38       -10.7962   25.2155   25.3245 H           1 DGX       0.2099
     76 H39       -10.7597   28.9955   25.1790 H           1 DGX       0.0645
     77 H40        -9.4281   26.7107   24.3732 H           1 DGX       0.2100
     78 H41        -8.6112   27.6452   26.8998 H           1 DGX       0.0621
     79 H42        -7.6901   29.9265   27.1367 H           1 DGX       0.0255
     80 H43        -8.9433   30.5751   26.0610 H           1 DGX       0.0255
     81 H44        -7.7127   29.4605   25.4306 H           1 DGX       0.0255
@<TRIPOS>BOND
     1    11     1   1
     2     1     2   1
     3     2     3   1
     4     3     5   1
     5     3     4   1
     6     4    29   1
     7    29    36   1
     8    29    30   1
     9    30    31   1
    10    31    33   1
    11    31    32   1
    12    33    35   1
    13    33    34   1
    14    35    37   1
    15    36    35   1
    16     5     6   1
    17    11     6   1
    18     6     7   1
    19     7     8   1
    20     8     9   1
    21     9    16   1
    22     9    10   1
    23    10    12   1
    24    10    11   1
    25    11    22   1
    26    12    13   1
    27    13    15   1
    28    13    14   1
    29    15    21   1
    30    15    20   1
    31    15    16   1
    32    16    18   1
    33    16    17   1
    34    18    19   1
    35    20    19   1
    36    20    23   1
    37    23    26   2
    38    23    24   1
    39    24    25   1
    40    25    27   1
    41    27    28   2
    42    27    26   1
    43     1    38   1
    44     1    39   1
    45     2    40   1
    46     2    41   1
    47     3    42   1
    48     5    43   1
    49     5    44   1
    50     6    45   1
    51     7    46   1
    52     7    47   1
    53     8    48   1
    54     8    49   1
    55     9    50   1
    56    10    51   1
    57    12    52   1
    58    12    53   1
    59    13    54   1
    60    14    55   1
    61    17    56   1
    62    18    57   1
    63    18    58   1
    64    19    59   1
    65    19    60   1
    66    20    61   1
    67    21    62   1
    68    21    63   1
    69    21    64   1
    70    22    65   1
    71    22    66   1
    72    22    67   1
    73    24    68   1
    74    24    69   1
    75    26    70   1
    76    29    71   1
    77    30    72   1
    78    30    73   1
    79    31    74   1
    80    32    75   1
    81    33    76   1
    82    34    77   1
    83    35    78   1
    84    37    79   1
    85    37    80   1
    86    37    81   1
@<TRIPOS>SUBSTRUCTURE
     1  DGX      1

