@<TRIPOS>MOLECULE
1igj_ligand_019
    81    86
SMALL
GAST_HUCK
****
This file was generated by PARSER (from files_GN.cpp)

@<TRIPOS>ATOM
      1 C1        -14.9461   26.9841   30.9948 C.3         1 DGX      -0.0448
      2 C2        -14.1570   27.4051   32.2657 C.3         1 DGX      -0.0260
      3 C3        -13.8771   28.9316   32.2573 C.3         1 DGX       0.0620
      4 O3        -15.1598   29.5913   32.3357 O.3         1 DGX      -0.3480
      5 C4        -13.0511   29.2553   30.9802 C.3         1 DGX      -0.0232
      6 C5        -13.8172   28.8704   29.6719 C.3         1 DGX      -0.0330
      7 C6        -13.0093   29.3031   28.4118 C.3         1 DGX      -0.0493
      8 C7        -11.7881   28.3938   28.1505 C.3         1 DGX      -0.0470
      9 C8        -12.1837   26.8919   28.0131 C.3         1 DGX      -0.0079
     10 C9        -13.0351   26.4008   29.2485 C.3         1 DGX      -0.0276
     11 C10       -14.2728   27.3494   29.6081 C.3         1 DGX      -0.0258
     12 C11       -13.4115   24.8980   29.0207 C.3         1 DGX      -0.0223
     13 C12       -12.1878   23.9855   28.7433 C.3         1 DGX       0.0664
     14 O12       -12.6651   22.6444   28.5973 O.3         1 DGX      -0.3909
     15 C13       -11.2873   24.4370   27.5201 C.3         1 DGX       0.0405
     16 C14       -10.9489   25.9703   27.6580 C.3         1 DGX       0.0799
     17 O14       -10.4090   26.4358   26.4060 O.3         1 DGX      -0.3874
     18 C15        -9.7743   25.9886   28.6724 C.3         1 DGX      -0.0200
     19 C16        -8.9110   24.7752   28.2811 C.3         1 DGX      -0.0318
     20 C17        -9.8670   23.7318   27.6254 C.3         1 DGX       0.0177
     21 C18       -12.0531   24.1244   26.1846 C.3         1 DGX      -0.0516
     22 C19       -15.4089   27.2086   28.5266 C.3         1 DGX      -0.0590
     23 C20        -9.2887   23.0966   26.4199 C.2         1 DGX      -0.0063
     24 C21        -9.0959   21.6673   26.2741 C.3         1 DGX       0.1204
     25 O21        -8.4710   21.5670   24.9941 O.3         1 DGX      -0.2665
     26 C22        -8.8295   23.7140   25.3289 C.2         1 DGX       0.0017
     27 C23        -8.3295   22.7932   24.4700 C.2         1 DGX       0.2187
     28 O23        -7.7336   23.0598   23.2830 O.2         1 DGX      -0.3870
     29 C1X       -15.2556   31.0275   32.3756 C.3         1 DGX       0.1624
     30 C2X       -16.7658   31.3798   32.3769 C.3         1 DGX       0.0270
     31 C3X       -16.9833   32.9062   32.5284 C.3         1 DGX       0.0881
     32 O3X       -16.5876   33.5870   31.3340 O.3         1 DGX      -0.3890
     33 C4X       -16.1969   33.4476   33.7537 C.3         1 DGX       0.1070
     34 O4X       -16.3009   34.8693   33.8095 O.3         1 DGX      -0.3867
     35 C5X       -14.7046   32.9889   33.7058 C.3         1 DGX       0.0871
     36 O5X       -14.6151   31.5521   33.5607 O.3         1 DGX      -0.3456
     37 C6X       -13.9379   33.3946   34.9867 C.3         1 DGX      -0.0361
     38 H1        -15.1516   25.9172   31.0629 H           1 DGX       0.0271
     39 H2        -15.9248   27.4705   31.0608 H           1 DGX       0.0271
     40 H3        -13.2201   26.8483   32.3292 H           1 DGX       0.0290
     41 H4        -14.7403   27.1511   33.1562 H           1 DGX       0.0290
     42 H5        -13.2851   29.1847   33.1411 H           1 DGX       0.0597
     43 H6        -12.1063   28.7122   31.0393 H           1 DGX       0.0293
     44 H7        -12.8033   30.3203   30.9779 H           1 DGX       0.0293
     45 H8        -14.7181   29.4938   29.6701 H           1 DGX       0.0307
     46 H9        -12.6713   30.3379   28.5195 H           1 DGX       0.0268
     47 H10       -13.6635   29.2842   27.5344 H           1 DGX       0.0268
     48 H11       -11.0634   28.5209   28.9547 H           1 DGX       0.0269
     49 H12       -11.3190   28.7439   27.2282 H           1 DGX       0.0269
     50 H13       -12.8355   26.8404   27.1372 H           1 DGX       0.0332
     51 H14       -12.3724   26.4243   30.1152 H           1 DGX       0.0310
     52 H15       -14.1074   24.8001   28.1887 H           1 DGX       0.0293
     53 H16       -13.9065   24.4978   29.9058 H           1 DGX       0.0293
     54 H17       -11.5940   23.9887   29.6584 H           1 DGX       0.0602
     55 H18       -11.8698   22.0722   28.5886 H           1 DGX       0.2098
     56 H19        -9.9569   27.2851   26.5914 H           1 DGX       0.2102
     57 H20       -10.1291   25.8726   29.6962 H           1 DGX       0.0295
     58 H21        -9.1944   26.9138   28.6192 H           1 DGX       0.0295
     59 H22        -8.4099   24.3675   29.1639 H           1 DGX       0.0301
     60 H23        -8.1390   25.1205   27.5907 H           1 DGX       0.0301
     61 H24        -9.9456   22.9160   28.3478 H           1 DGX       0.0550
     62 H25       -12.2238   23.0524   26.0759 H           1 DGX       0.0239
     63 H26       -11.4907   24.4556   25.3140 H           1 DGX       0.0239
     64 H27       -13.0181   24.6269   26.1460 H           1 DGX       0.0239
     65 H28       -16.1916   27.9538   28.6843 H           1 DGX       0.0235
     66 H29       -15.8882   26.2297   28.5819 H           1 DGX       0.0235
     67 H30       -15.0397   27.3409   27.5101 H           1 DGX       0.0235
     68 H31       -10.0440   21.1251   26.2798 H           1 DGX       0.0859
     69 H32        -8.4275   21.2729   27.0401 H           1 DGX       0.0859
     70 H33        -8.8195   24.6896   25.1680 H           1 DGX       0.0295
     71 H34       -14.7966   31.4494   31.4799 H           1 DGX       0.0910
     72 H35       -17.2529   30.8651   33.2090 H           1 DGX       0.0340
     73 H36       -17.2237   31.0288   31.4486 H           1 DGX       0.0340
     74 H37       -18.0493   33.0974   32.6757 H           1 DGX       0.0621
     75 H38       -17.1607   33.2260   30.6249 H           1 DGX       0.2099
     76 H39       -16.6587   33.0473   34.6572 H           1 DGX       0.0645
     77 H40       -15.8730   35.1925   32.9889 H           1 DGX       0.2100
     78 H41       -14.2053   33.4684   32.8576 H           1 DGX       0.0621
     79 H42       -12.9000   33.0634   34.9197 H           1 DGX       0.0255
     80 H43       -14.3951   32.9340   35.8655 H           1 DGX       0.0255
     81 H44       -13.9478   34.4794   35.1101 H           1 DGX       0.0255
@<TRIPOS>BOND
     1    11     1   1
     2     1     2   1
     3     2     3   1
     4     3     5   1
     5     3     4   1
     6     4    29   1
     7    29    36   1
     8    29    30   1
     9    30    31   1
    10    31    33   1
    11    31    32   1
    12    33    35   1
    13    33    34   1
    14    35    37   1
    15    36    35   1
    16     5     6   1
    17    11     6   1
    18     6     7   1
    19     7     8   1
    20     8     9   1
    21     9    16   1
    22     9    10   1
    23    10    12   1
    24    10    11   1
    25    11    22   1
    26    12    13   1
    27    13    15   1
    28    13    14   1
    29    15    21   1
    30    15    20   1
    31    15    16   1
    32    16    18   1
    33    16    17   1
    34    18    19   1
    35    20    19   1
    36    20    23   1
    37    23    26   2
    38    23    24   1
    39    24    25   1
    40    25    27   1
    41    27    28   2
    42    27    26   1
    43     1    38   1
    44     1    39   1
    45     2    40   1
    46     2    41   1
    47     3    42   1
    48     5    43   1
    49     5    44   1
    50     6    45   1
    51     7    46   1
    52     7    47   1
    53     8    48   1
    54     8    49   1
    55     9    50   1
    56    10    51   1
    57    12    52   1
    58    12    53   1
    59    13    54   1
    60    14    55   1
    61    17    56   1
    62    18    57   1
    63    18    58   1
    64    19    59   1
    65    19    60   1
    66    20    61   1
    67    21    62   1
    68    21    63   1
    69    21    64   1
    70    22    65   1
    71    22    66   1
    72    22    67   1
    73    24    68   1
    74    24    69   1
    75    26    70   1
    76    29    71   1
    77    30    72   1
    78    30    73   1
    79    31    74   1
    80    32    75   1
    81    33    76   1
    82    34    77   1
    83    35    78   1
    84    37    79   1
    85    37    80   1
    86    37    81   1
@<TRIPOS>SUBSTRUCTURE
     1  DGX      1

