@<TRIPOS>MOLECULE
1igj_ligand_073
    81    86
SMALL
GAST_HUCK
****
This file was generated by PARSER (from files_GN.cpp)

@<TRIPOS>ATOM
      1 C1         -9.0968   27.6765   28.1351 C.3         1 DGX      -0.0448
      2 C2         -9.1425   26.4808   29.1237 C.3         1 DGX      -0.0260
      3 C3         -9.7872   25.2204   28.4883 C.3         1 DGX       0.0620
      4 O3         -8.9369   24.7455   27.4085 O.3         1 DGX      -0.3480
      5 C4        -11.2072   25.6141   28.0140 C.3         1 DGX      -0.0232
      6 C5        -11.1372   26.7382   26.9266 C.3         1 DGX      -0.0330
      7 C6        -12.5361   26.9624   26.2970 C.3         1 DGX      -0.0493
      8 C7        -13.5192   27.6432   27.2690 C.3         1 DGX      -0.0470
      9 C8        -12.9569   28.9674   27.8799 C.3         1 DGX      -0.0079
     10 C9        -11.4938   28.7997   28.4553 C.3         1 DGX      -0.0276
     11 C10       -10.4765   28.0712   27.4640 C.3         1 DGX      -0.0258
     12 C11       -11.0177   30.1836   29.0039 C.3         1 DGX      -0.0223
     13 C12       -11.9949   30.7673   30.0591 C.3         1 DGX       0.0664
     14 O12       -11.4340   31.9754   30.5789 O.3         1 DGX      -0.3909
     15 C13       -13.4859   30.9598   29.5584 C.3         1 DGX       0.0405
     16 C14       -13.9865   29.6272   28.8853 C.3         1 DGX       0.0799
     17 O14       -15.1804   29.9039   28.1325 O.3         1 DGX      -0.3874
     18 C15       -14.4143   28.7340   30.0873 C.3         1 DGX      -0.0200
     19 C16       -14.8488   29.6802   31.2265 C.3         1 DGX      -0.0318
     20 C17       -14.4378   31.1249   30.8128 C.3         1 DGX       0.0177
     21 C18       -13.5456   32.1908   28.5817 C.3         1 DGX      -0.0516
     22 C19       -10.0949   29.0075   26.2602 C.3         1 DGX      -0.0590
     23 C20       -15.5990   32.0313   30.7182 C.2         1 DGX      -0.0063
     24 C21       -15.7136   33.2632   31.4747 C.3         1 DGX       0.1204
     25 O21       -16.9983   33.7507   31.0918 O.3         1 DGX      -0.2665
     26 C22       -16.7179   31.8579   30.0036 C.2         1 DGX       0.0017
     27 C23       -17.5613   32.8917   30.2217 C.2         1 DGX       0.2187
     28 O23       -18.7876   33.0373   29.6736 O.2         1 DGX      -0.3870
     29 C1X        -8.9545   23.3552   27.0061 C.3         1 DGX       0.1624
     30 C2X       -10.0963   22.9825   26.0175 C.3         1 DGX       0.0270
     31 C3X        -9.9692   21.5080   25.5595 C.3         1 DGX       0.0881
     32 O3X       -10.2897   20.6435   26.6494 O.3         1 DGX      -0.3890
     33 C4X        -8.5501   21.1936   25.0210 C.3         1 DGX       0.1070
     34 O4X        -8.3984   19.7785   24.8853 O.3         1 DGX      -0.3867
     35 C5X        -7.4271   21.7568   25.9400 C.3         1 DGX       0.0871
     36 O5X        -7.7044   23.1259   26.3196 O.3         1 DGX      -0.3456
     37 C6X        -6.0452   21.7071   25.2361 C.3         1 DGX      -0.0361
     38 H1         -8.6519   28.5304   28.6548 H           1 DGX       0.0271
     39 H2         -8.3775   27.3988   27.3589 H           1 DGX       0.0271
     40 H3         -9.7042   26.7766   30.0152 H           1 DGX       0.0290
     41 H4         -8.1288   26.2365   29.4467 H           1 DGX       0.0290
     42 H5         -9.8675   24.4630   29.2696 H           1 DGX       0.0597
     43 H6        -11.7830   25.9423   28.8840 H           1 DGX       0.0293
     44 H7        -11.7233   24.7335   27.6267 H           1 DGX       0.0293
     45 H8        -10.5148   26.3488   26.1120 H           1 DGX       0.0307
     46 H9        -12.9609   26.0076   25.9651 H           1 DGX       0.0268
     47 H10       -12.4313   27.5770   25.4041 H           1 DGX       0.0268
     48 H11       -13.7745   26.9419   28.0614 H           1 DGX       0.0269
     49 H12       -14.4333   27.8468   26.7078 H           1 DGX       0.0269
     50 H13       -12.8794   29.6679   27.0447 H           1 DGX       0.0332
     51 H14       -11.5743   28.1594   29.3345 H           1 DGX       0.0310
     52 H15       -10.8985   30.8943   28.1878 H           1 DGX       0.0293
     53 H16       -10.0469   30.0758   29.4867 H           1 DGX       0.0293
     54 H17       -11.9891   30.0690   30.9018 H           1 DGX       0.0602
     55 H18       -11.2478   32.5398   29.7982 H           1 DGX       0.2098
     56 H19       -15.5958   29.0394   27.9348 H           1 DGX       0.2102
     57 H20       -13.5841   28.1164   30.4352 H           1 DGX       0.0295
     58 H21       -15.2313   28.0570   29.8167 H           1 DGX       0.0295
     59 H22       -14.3449   29.3930   32.1532 H           1 DGX       0.0301
     60 H23       -15.9244   29.5764   31.4025 H           1 DGX       0.0301
     61 H24       -13.8367   31.5266   31.6355 H           1 DGX       0.0550
     62 H25       -13.2646   33.1091   29.1021 H           1 DGX       0.0239
     63 H26       -14.5477   32.3435   28.1794 H           1 DGX       0.0239
     64 H27       -12.8752   32.0635   27.7314 H           1 DGX       0.0239
     65 H28        -9.5269   28.4625   25.5027 H           1 DGX       0.0235
     66 H29        -9.4691   29.8438   26.5891 H           1 DGX       0.0235
     67 H30       -10.9685   29.4302   25.7690 H           1 DGX       0.0235
     68 H31       -14.9350   33.9768   31.1968 H           1 DGX       0.0859
     69 H32       -15.6880   33.0722   32.5498 H           1 DGX       0.0859
     70 H33       -16.9387   31.0760   29.4387 H           1 DGX       0.0295
     71 H34        -8.9962   22.7235   27.8972 H           1 DGX       0.0910
     72 H35       -10.0468   23.6452   25.1471 H           1 DGX       0.0340
     73 H36       -11.0764   23.0990   26.4846 H           1 DGX       0.0340
     74 H37       -10.6996   21.3251   24.7675 H           1 DGX       0.0621
     75 H38       -11.2706   20.6896   26.7405 H           1 DGX       0.2099
     76 H39        -8.4624   21.6501   24.0324 H           1 DGX       0.0645
     77 H40        -7.5044   19.6321   24.5172 H           1 DGX       0.2100
     78 H41        -7.3657   21.1466   26.8471 H           1 DGX       0.0621
     79 H42        -5.2646   22.0711   25.9030 H           1 DGX       0.0255
     80 H43        -6.0525   22.3269   24.3373 H           1 DGX       0.0255
     81 H44        -5.7930   20.6843   24.9534 H           1 DGX       0.0255
@<TRIPOS>BOND
     1    11     1   1
     2     1     2   1
     3     2     3   1
     4     3     5   1
     5     3     4   1
     6     4    29   1
     7    29    36   1
     8    29    30   1
     9    30    31   1
    10    31    33   1
    11    31    32   1
    12    33    35   1
    13    33    34   1
    14    35    37   1
    15    36    35   1
    16     5     6   1
    17    11     6   1
    18     6     7   1
    19     7     8   1
    20     8     9   1
    21     9    16   1
    22     9    10   1
    23    10    12   1
    24    10    11   1
    25    11    22   1
    26    12    13   1
    27    13    15   1
    28    13    14   1
    29    15    21   1
    30    15    20   1
    31    15    16   1
    32    16    18   1
    33    16    17   1
    34    18    19   1
    35    20    19   1
    36    20    23   1
    37    23    26   2
    38    23    24   1
    39    24    25   1
    40    25    27   1
    41    27    28   2
    42    27    26   1
    43     1    38   1
    44     1    39   1
    45     2    40   1
    46     2    41   1
    47     3    42   1
    48     5    43   1
    49     5    44   1
    50     6    45   1
    51     7    46   1
    52     7    47   1
    53     8    48   1
    54     8    49   1
    55     9    50   1
    56    10    51   1
    57    12    52   1
    58    12    53   1
    59    13    54   1
    60    14    55   1
    61    17    56   1
    62    18    57   1
    63    18    58   1
    64    19    59   1
    65    19    60   1
    66    20    61   1
    67    21    62   1
    68    21    63   1
    69    21    64   1
    70    22    65   1
    71    22    66   1
    72    22    67   1
    73    24    68   1
    74    24    69   1
    75    26    70   1
    76    29    71   1
    77    30    72   1
    78    30    73   1
    79    31    74   1
    80    32    75   1
    81    33    76   1
    82    34    77   1
    83    35    78   1
    84    37    79   1
    85    37    80   1
    86    37    81   1
@<TRIPOS>SUBSTRUCTURE
     1  DGX      1

