@<TRIPOS>MOLECULE
1igj_ligand_064
    81    86
SMALL
GAST_HUCK
****
This file was generated by PARSER (from files_GN.cpp)

@<TRIPOS>ATOM
      1 C1        -17.2169   23.4610   33.7801 C.3         1 DGX      -0.0448
      2 C2        -16.5686   24.1180   35.0271 C.3         1 DGX      -0.0260
      3 C3        -17.2717   25.4435   35.4287 C.3         1 DGX       0.0620
      4 O3        -18.5799   25.1330   35.9776 O.3         1 DGX      -0.3480
      5 C4        -17.2875   26.3908   34.1962 C.3         1 DGX      -0.0232
      6 C5        -18.0198   25.7387   32.9718 C.3         1 DGX      -0.0330
      7 C6        -18.1812   26.7671   31.8146 C.3         1 DGX      -0.0493
      8 C7        -16.8376   27.0789   31.1245 C.3         1 DGX      -0.0470
      9 C8        -16.0960   25.7944   30.6383 C.3         1 DGX      -0.0079
     10 C9        -15.9699   24.6989   31.7702 C.3         1 DGX      -0.0276
     11 C10       -17.3560   24.3814   32.4975 C.3         1 DGX      -0.0258
     12 C11       -15.2017   23.4586   31.2054 C.3         1 DGX      -0.0223
     13 C12       -13.8438   23.8444   30.5551 C.3         1 DGX       0.0664
     14 O12       -13.1610   22.6572   30.1416 O.3         1 DGX      -0.3909
     15 C13       -13.9299   24.9203   29.3927 C.3         1 DGX       0.0405
     16 C14       -14.7466   26.1584   29.9095 C.3         1 DGX       0.0799
     17 O14       -15.0782   27.0208   28.8116 O.3         1 DGX      -0.3874
     18 C15       -13.7233   26.9582   30.7622 C.3         1 DGX      -0.0200
     19 C16       -12.3473   26.7304   30.1064 C.3         1 DGX      -0.0318
     20 C17       -12.4957   25.5337   29.1191 C.3         1 DGX       0.0177
     21 C18       -14.5571   24.2318   28.1255 C.3         1 DGX      -0.0516
     22 C19       -18.3331   23.6069   31.5345 C.3         1 DGX      -0.0590
     23 C20       -12.1283   25.8951   27.7303 C.2         1 DGX      -0.0063
     24 C21       -12.6965   26.9373   26.8795 C.3         1 DGX       0.1204
     25 O21       -11.8997   26.8473   25.7012 O.3         1 DGX      -0.2665
     26 C22       -11.1316   25.3006   27.0634 C.2         1 DGX       0.0017
     27 C23       -10.9898   25.8640   25.8447 C.2         1 DGX       0.2187
     28 O23       -10.0649   25.5188   24.9249 O.2         1 DGX      -0.3870
     29 C1X       -19.5053   26.1562   36.4240 C.3         1 DGX       0.1624
     30 C2X       -18.8943   27.1708   37.4349 C.3         1 DGX       0.0270
     31 C3X       -19.8966   28.3000   37.7804 C.3         1 DGX       0.0881
     32 O3X       -20.9761   27.7971   38.5705 O.3         1 DGX      -0.3890
     33 C4X       -20.4321   28.9516   36.4794 C.3         1 DGX       0.1070
     34 O4X       -21.3872   29.9651   36.7985 O.3         1 DGX      -0.3867
     35 C5X       -21.0432   27.8743   35.5376 C.3         1 DGX       0.0871
     36 O5X       -20.0897   26.8193   35.2788 O.3         1 DGX      -0.3456
     37 C6X       -21.4415   28.4693   34.1672 C.3         1 DGX      -0.0361
     38 H1        -16.6650   22.5503   33.5422 H           1 DGX       0.0271
     39 H2        -18.2121   23.1309   34.0962 H           1 DGX       0.0271
     40 H3        -15.5105   24.3034   34.8317 H           1 DGX       0.0290
     41 H4        -16.6167   23.4177   35.8674 H           1 DGX       0.0290
     42 H5        -16.6610   25.8939   36.2155 H           1 DGX       0.0597
     43 H6        -16.2544   26.6289   33.9431 H           1 DGX       0.0293
     44 H7        -17.7554   27.3406   34.4696 H           1 DGX       0.0293
     45 H8        -19.0372   25.5126   33.3025 H           1 DGX       0.0307
     46 H9        -18.6108   27.6960   32.1996 H           1 DGX       0.0268
     47 H10       -18.8850   26.3838   31.0729 H           1 DGX       0.0268
     48 H11       -16.2070   27.6436   31.8134 H           1 DGX       0.0269
     49 H12       -17.0499   27.7304   30.2732 H           1 DGX       0.0269
     50 H13       -16.7263   25.3585   29.8640 H           1 DGX       0.0332
     51 H14       -15.3123   25.1108   32.5340 H           1 DGX       0.0310
     52 H15       -15.8078   22.9240   30.4750 H           1 DGX       0.0293
     53 H16       -14.9849   22.7614   32.0165 H           1 DGX       0.0293
     54 H17       -13.2323   24.2462   31.3623 H           1 DGX       0.0602
     55 H18       -13.8100   22.1376   29.6219 H           1 DGX       0.2098
     56 H19       -15.7756   26.5549   28.3062 H           1 DGX       0.2102
     57 H20       -13.6947   26.5983   31.7938 H           1 DGX       0.0295
     58 H21       -13.9668   28.0244   30.7942 H           1 DGX       0.0295
     59 H22       -11.6106   26.4965   30.8773 H           1 DGX       0.0301
     60 H23       -12.0152   27.6522   29.6216 H           1 DGX       0.0301
     61 H24       -11.7606   24.7857   29.4404 H           1 DGX       0.0550
     62 H25       -13.9044   23.4396   27.7592 H           1 DGX       0.0239
     63 H26       -14.6984   24.9346   27.3094 H           1 DGX       0.0239
     64 H27       -15.5270   23.7908   28.3444 H           1 DGX       0.0239
     65 H28       -19.3265   23.5055   31.9779 H           1 DGX       0.0235
     66 H29       -17.9666   22.5992   31.3342 H           1 DGX       0.0235
     67 H30       -18.4619   24.1048   30.5757 H           1 DGX       0.0235
     68 H31       -12.5874   27.9342   27.3060 H           1 DGX       0.0859
     69 H32       -13.7393   26.7613   26.6172 H           1 DGX       0.0859
     70 H33       -10.5648   24.5611   27.4049 H           1 DGX       0.0295
     71 H34       -20.3101   25.6173   36.9317 H           1 DGX       0.0910
     72 H35       -18.0066   27.6394   37.0081 H           1 DGX       0.0340
     73 H36       -18.5929   26.6469   38.3444 H           1 DGX       0.0340
     74 H37       -19.3814   29.0661   38.3742 H           1 DGX       0.0621
     75 H38       -20.5689   27.4913   39.4032 H           1 DGX       0.2099
     76 H39       -19.5982   29.4353   35.9646 H           1 DGX       0.0645
     77 H40       -20.8845   30.6405   37.3088 H           1 DGX       0.2100
     78 H41       -21.9361   27.4454   35.9969 H           1 DGX       0.0621
     79 H42       -21.8598   27.6899   33.5257 H           1 DGX       0.0255
     80 H43       -20.5663   28.8941   33.6738 H           1 DGX       0.0255
     81 H44       -22.1889   29.2574   34.2916 H           1 DGX       0.0255
@<TRIPOS>BOND
     1    11     1   1
     2     1     2   1
     3     2     3   1
     4     3     5   1
     5     3     4   1
     6     4    29   1
     7    29    36   1
     8    29    30   1
     9    30    31   1
    10    31    33   1
    11    31    32   1
    12    33    35   1
    13    33    34   1
    14    35    37   1
    15    36    35   1
    16     5     6   1
    17    11     6   1
    18     6     7   1
    19     7     8   1
    20     8     9   1
    21     9    16   1
    22     9    10   1
    23    10    12   1
    24    10    11   1
    25    11    22   1
    26    12    13   1
    27    13    15   1
    28    13    14   1
    29    15    21   1
    30    15    20   1
    31    15    16   1
    32    16    18   1
    33    16    17   1
    34    18    19   1
    35    20    19   1
    36    20    23   1
    37    23    26   2
    38    23    24   1
    39    24    25   1
    40    25    27   1
    41    27    28   2
    42    27    26   1
    43     1    38   1
    44     1    39   1
    45     2    40   1
    46     2    41   1
    47     3    42   1
    48     5    43   1
    49     5    44   1
    50     6    45   1
    51     7    46   1
    52     7    47   1
    53     8    48   1
    54     8    49   1
    55     9    50   1
    56    10    51   1
    57    12    52   1
    58    12    53   1
    59    13    54   1
    60    14    55   1
    61    17    56   1
    62    18    57   1
    63    18    58   1
    64    19    59   1
    65    19    60   1
    66    20    61   1
    67    21    62   1
    68    21    63   1
    69    21    64   1
    70    22    65   1
    71    22    66   1
    72    22    67   1
    73    24    68   1
    74    24    69   1
    75    26    70   1
    76    29    71   1
    77    30    72   1
    78    30    73   1
    79    31    74   1
    80    32    75   1
    81    33    76   1
    82    34    77   1
    83    35    78   1
    84    37    79   1
    85    37    80   1
    86    37    81   1
@<TRIPOS>SUBSTRUCTURE
     1  DGX      1

