@<TRIPOS>MOLECULE
1igj_ligand_055
    81    86
SMALL
GAST_HUCK
****
This file was generated by PARSER (from files_GN.cpp)

@<TRIPOS>ATOM
      1 C1        -15.7301   29.4067   32.0422 C.3         1 DGX      -0.0448
      2 C2        -15.0892   28.2321   31.2622 C.3         1 DGX      -0.0260
      3 C3        -14.7983   27.0229   32.1853 C.3         1 DGX       0.0620
      4 O3        -16.0601   26.4531   32.6004 O.3         1 DGX      -0.3480
      5 C4        -13.9780   27.4557   33.4274 C.3         1 DGX      -0.0232
      6 C5        -14.5835   28.6834   34.1937 C.3         1 DGX      -0.0330
      7 C6        -13.6951   29.0649   35.4164 C.3         1 DGX      -0.0493
      8 C7        -12.3744   29.7662   35.0109 C.3         1 DGX      -0.0470
      9 C8        -12.5774   30.9925   34.0621 C.3         1 DGX      -0.0079
     10 C9        -13.5051   30.6251   32.8426 C.3         1 DGX      -0.0276
     11 C10       -14.8821   29.9330   33.2668 C.3         1 DGX      -0.0258
     12 C11       -13.6625   31.8644   31.9061 C.3         1 DGX      -0.0223
     13 C12       -12.2955   32.4240   31.4342 C.3         1 DGX       0.0664
     14 O12       -12.5149   33.5038   30.5210 O.3         1 DGX      -0.3909
     15 C13       -11.3242   32.8518   32.6067 C.3         1 DGX       0.0405
     16 C14       -11.2093   31.6828   33.6612 C.3         1 DGX       0.0799
     17 O14       -10.6337   32.2131   34.8717 O.3         1 DGX      -0.3874
     18 C15       -10.1338   30.7518   33.0421 C.3         1 DGX      -0.0200
     19 C16        -9.0735   31.7184   32.4920 C.3         1 DGX      -0.0318
     20 C17        -9.8459   32.9908   32.0273 C.3         1 DGX       0.0177
     21 C18       -11.8871   34.1607   33.2798 C.3         1 DGX      -0.0516
     22 C19       -15.8257   30.9459   34.0184 C.3         1 DGX      -0.0590
     23 C20        -9.1414   34.2661   32.2504 C.2         1 DGX      -0.0063
     24 C21        -8.2320   34.5967   33.3341 C.3         1 DGX       0.1204
     25 O21        -7.9640   35.9793   33.1064 O.3         1 DGX      -0.2665
     26 C22        -9.3350   35.3571   31.5022 C.2         1 DGX       0.0017
     27 C23        -8.6280   36.3916   32.0094 C.2         1 DGX       0.2187
     28 O23        -8.5988   37.6484   31.5134 O.2         1 DGX      -0.3870
     29 C1X       -16.4052   25.0666   32.3850 C.3         1 DGX       0.1624
     30 C2X       -17.7998   25.0621   31.7020 C.3         1 DGX       0.0270
     31 C3X       -18.2758   23.6214   31.3794 C.3         1 DGX       0.0881
     32 O3X       -18.6345   22.9408   32.5832 O.3         1 DGX      -0.3890
     33 C4X       -17.1803   22.8268   30.6182 C.3         1 DGX       0.1070
     34 O4X       -17.5645   21.4593   30.4862 O.3         1 DGX      -0.3867
     35 C5X       -15.8122   22.9215   31.3532 C.3         1 DGX       0.0871
     36 O5X       -15.4640   24.3049   31.5895 O.3         1 DGX      -0.3456
     37 C6X       -14.6607   22.2738   30.5473 C.3         1 DGX      -0.0361
     38 H1        -15.9459   30.2095   31.3382 H           1 DGX       0.0271
     39 H2        -16.7049   29.0562   32.3987 H           1 DGX       0.0271
     40 H3        -14.1657   28.5625   30.7834 H           1 DGX       0.0290
     41 H4        -15.7685   27.9145   30.4660 H           1 DGX       0.0290
     42 H5        -14.1871   26.3209   31.6103 H           1 DGX       0.0597
     43 H6        -12.9678   27.6853   33.0892 H           1 DGX       0.0293
     44 H7        -13.9021   26.6007   34.1052 H           1 DGX       0.0293
     45 H8        -15.5356   28.3293   34.6070 H           1 DGX       0.0307
     46 H9        -13.4578   28.1681   35.9958 H           1 DGX       0.0268
     47 H10       -14.2532   29.7250   36.0850 H           1 DGX       0.0268
     48 H11       -11.7236   29.0308   34.5370 H           1 DGX       0.0269
     49 H12       -11.8784   30.0869   35.9297 H           1 DGX       0.0269
     50 H13       -13.1105   31.7396   34.6516 H           1 DGX       0.0332
     51 H14       -12.9487   29.8894   32.2596 H           1 DGX       0.0310
     52 H15       -14.2255   32.6536   32.4026 H           1 DGX       0.0293
     53 H16       -14.2152   31.5832   31.0091 H           1 DGX       0.0293
     54 H17       -11.8285   31.6308   30.8420 H           1 DGX       0.0602
     55 H18       -12.9930   33.1161   29.7569 H           1 DGX       0.2098
     56 H19       -10.2478   31.4561   35.3603 H           1 DGX       0.2102
     57 H20       -10.5432   30.1455   32.2311 H           1 DGX       0.0295
     58 H21        -9.6905   30.0789   33.7802 H           1 DGX       0.0295
     59 H22        -8.5152   31.2560   31.6718 H           1 DGX       0.0301
     60 H23        -8.3679   31.9320   33.2968 H           1 DGX       0.0301
     61 H24        -9.8805   32.8938   30.9350 H           1 DGX       0.0550
     62 H25       -12.0088   34.9600   32.5480 H           1 DGX       0.0239
     63 H26       -11.2174   34.5297   34.0560 H           1 DGX       0.0239
     64 H27       -12.8552   33.9867   33.7486 H           1 DGX       0.0239
     65 H28       -16.7138   30.4406   34.4057 H           1 DGX       0.0235
     66 H29       -16.1717   31.7358   33.3493 H           1 DGX       0.0235
     67 H30       -15.3381   31.4255   34.8645 H           1 DGX       0.0235
     68 H31        -7.3005   34.0315   33.2705 H           1 DGX       0.0859
     69 H32        -8.6977   34.4552   34.3109 H           1 DGX       0.0859
     70 H33        -9.9319   35.4194   30.7105 H           1 DGX       0.0295
     71 H34       -16.4836   24.6090   33.3770 H           1 DGX       0.0910
     72 H35       -17.7376   25.6321   30.7704 H           1 DGX       0.0340
     73 H36       -18.5336   25.5525   32.3466 H           1 DGX       0.0340
     74 H37       -19.1703   23.6757   30.7511 H           1 DGX       0.0621
     75 H38       -19.4059   23.4319   32.9376 H           1 DGX       0.2099
     76 H39       -17.0748   23.2490   29.6139 H           1 DGX       0.0645
     77 H40       -18.5004   21.4773   30.2044 H           1 DGX       0.2100
     78 H41       -15.8780   22.4034   32.3151 H           1 DGX       0.0621
     79 H42       -13.7246   22.3547   31.1053 H           1 DGX       0.0255
     80 H43       -14.5344   22.7771   29.5846 H           1 DGX       0.0255
     81 H44       -14.8652   21.2152   30.3689 H           1 DGX       0.0255
@<TRIPOS>BOND
     1    11     1   1
     2     1     2   1
     3     2     3   1
     4     3     5   1
     5     3     4   1
     6     4    29   1
     7    29    36   1
     8    29    30   1
     9    30    31   1
    10    31    33   1
    11    31    32   1
    12    33    35   1
    13    33    34   1
    14    35    37   1
    15    36    35   1
    16     5     6   1
    17    11     6   1
    18     6     7   1
    19     7     8   1
    20     8     9   1
    21     9    16   1
    22     9    10   1
    23    10    12   1
    24    10    11   1
    25    11    22   1
    26    12    13   1
    27    13    15   1
    28    13    14   1
    29    15    21   1
    30    15    20   1
    31    15    16   1
    32    16    18   1
    33    16    17   1
    34    18    19   1
    35    20    19   1
    36    20    23   1
    37    23    26   2
    38    23    24   1
    39    24    25   1
    40    25    27   1
    41    27    28   2
    42    27    26   1
    43     1    38   1
    44     1    39   1
    45     2    40   1
    46     2    41   1
    47     3    42   1
    48     5    43   1
    49     5    44   1
    50     6    45   1
    51     7    46   1
    52     7    47   1
    53     8    48   1
    54     8    49   1
    55     9    50   1
    56    10    51   1
    57    12    52   1
    58    12    53   1
    59    13    54   1
    60    14    55   1
    61    17    56   1
    62    18    57   1
    63    18    58   1
    64    19    59   1
    65    19    60   1
    66    20    61   1
    67    21    62   1
    68    21    63   1
    69    21    64   1
    70    22    65   1
    71    22    66   1
    72    22    67   1
    73    24    68   1
    74    24    69   1
    75    26    70   1
    76    29    71   1
    77    30    72   1
    78    30    73   1
    79    31    74   1
    80    32    75   1
    81    33    76   1
    82    34    77   1
    83    35    78   1
    84    37    79   1
    85    37    80   1
    86    37    81   1
@<TRIPOS>SUBSTRUCTURE
     1  DGX      1

