@<TRIPOS>MOLECULE
1igj_ligand_034
    81    86
SMALL
GAST_HUCK
****
This file was generated by PARSER (from files_GN.cpp)

@<TRIPOS>ATOM
      1 C1        -10.2859   28.4198   28.2097 C.3         1 DGX      -0.0448
      2 C2        -10.6888   27.1028   28.9264 C.3         1 DGX      -0.0260
      3 C3        -12.1261   26.6850   28.5168 C.3         1 DGX       0.0620
      4 O3        -12.2683   26.3761   27.1042 O.3         1 DGX      -0.3480
      5 C4        -13.1121   27.8322   28.8584 C.3         1 DGX      -0.0232
      6 C5        -12.7144   29.2086   28.2223 C.3         1 DGX      -0.0330
      7 C6        -13.7483   30.3142   28.6026 C.3         1 DGX      -0.0493
      8 C7        -13.6231   30.7842   30.0728 C.3         1 DGX      -0.0470
      9 C8        -12.1766   31.2360   30.4570 C.3         1 DGX      -0.0079
     10 C9        -11.1158   30.1454   30.0467 C.3         1 DGX      -0.0276
     11 C10       -11.2234   29.6521   28.5311 C.3         1 DGX      -0.0258
     12 C11        -9.6906   30.6281   30.4588 C.3         1 DGX      -0.0223
     13 C12        -9.6037   30.9765   31.9616 C.3         1 DGX       0.0664
     14 O12        -8.2481   31.3285   32.2541 O.3         1 DGX      -0.3909
     15 C13       -10.6212   32.0875   32.4489 C.3         1 DGX       0.0405
     16 C14       -12.0762   31.7218   31.9620 C.3         1 DGX       0.0799
     17 O14       -12.9137   32.8858   32.0927 O.3         1 DGX      -0.3874
     18 C15       -12.5678   30.7159   33.0384 C.3         1 DGX      -0.0200
     19 C16       -12.0463   31.2813   34.3702 C.3         1 DGX      -0.0318
     20 C17       -10.7165   32.0249   34.0361 C.3         1 DGX       0.0177
     21 C18       -10.1539   33.4820   31.8839 C.3         1 DGX      -0.0516
     22 C19       -10.7952   30.7846   27.5242 C.3         1 DGX      -0.0590
     23 C20       -10.5323   33.2677   34.8013 C.2         1 DGX      -0.0063
     24 C21        -9.3452   33.5666   35.5821 C.3         1 DGX       0.1204
     25 O21        -9.6371   34.8608   36.1021 O.3         1 DGX      -0.2665
     26 C22       -11.3816   34.2962   34.8835 C.2         1 DGX       0.0017
     27 C23       -10.8501   35.2584   35.6702 C.2         1 DGX       0.2187
     28 O23       -11.4268   36.4370   35.9811 O.2         1 DGX      -0.3870
     29 C1X       -11.8946   25.0919   26.5568 C.3         1 DGX       0.1624
     30 C2X       -10.4790   25.1000   25.9081 C.3         1 DGX       0.0270
     31 C3X       -10.0792   23.6870   25.4109 C.3         1 DGX       0.0881
     32 O3X       -10.8445   23.3595   24.2513 O.3         1 DGX      -0.3890
     33 C4X       -10.2845   22.6246   26.5270 C.3         1 DGX       0.1070
     34 O4X        -9.9717   21.3349   26.0014 O.3         1 DGX      -0.3867
     35 C5X       -11.7449   22.6923   27.0724 C.3         1 DGX       0.0871
     36 O5X       -12.0392   24.0302   27.5263 O.3         1 DGX      -0.3456
     37 C6X       -11.9849   21.7608   28.2827 C.3         1 DGX      -0.0361
     38 H1         -9.2465   28.6372   28.4494 H           1 DGX       0.0271
     39 H2        -10.3031   28.2233   27.1321 H           1 DGX       0.0271
     40 H3        -10.6320   27.2293   30.0135 H           1 DGX       0.0290
     41 H4         -9.9791   26.3096   28.6769 H           1 DGX       0.0290
     42 H5        -12.4219   25.8307   29.1278 H           1 DGX       0.0597
     43 H6        -13.1658   27.9190   29.9464 H           1 DGX       0.0293
     44 H7        -14.1096   27.5463   28.5112 H           1 DGX       0.0293
     45 H8        -12.8102   29.0663   27.1392 H           1 DGX       0.0307
     46 H9        -14.7650   29.9451   28.4299 H           1 DGX       0.0268
     47 H10       -13.6176   31.1806   27.9491 H           1 DGX       0.0268
     48 H11       -13.9510   29.9752   30.7276 H           1 DGX       0.0269
     49 H12       -14.3209   31.6144   30.2108 H           1 DGX       0.0269
     50 H13       -11.9706   32.1228   29.8534 H           1 DGX       0.0332
     51 H14       -11.3275   29.2808   30.6753 H           1 DGX       0.0310
     52 H15        -9.3885   31.4913   29.8674 H           1 DGX       0.0293
     53 H16        -8.9605   29.8381   30.2817 H           1 DGX       0.0293
     54 H17        -9.7993   30.0398   32.4975 H           1 DGX       0.0602
     55 H18        -7.9825   30.7420   32.9922 H           1 DGX       0.2098
     56 H19       -13.8369   32.5839   31.9714 H           1 DGX       0.2102
     57 H20       -12.1532   29.7189   32.8727 H           1 DGX       0.0295
     58 H21       -13.6584   30.6315   33.0596 H           1 DGX       0.0295
     59 H22       -11.8877   30.4777   35.0945 H           1 DGX       0.0301
     60 H23       -12.8029   31.9557   34.7811 H           1 DGX       0.0301
     61 H24        -9.9225   31.3601   34.4036 H           1 DGX       0.0550
     62 H25        -9.1607   33.7366   32.2546 H           1 DGX       0.0239
     63 H26       -10.8284   34.2830   32.1801 H           1 DGX       0.0239
     64 H27       -10.1209   33.4822   30.7964 H           1 DGX       0.0239
     65 H28       -10.9978   30.4868   26.4913 H           1 DGX       0.0235
     66 H29        -9.7256   30.9912   27.5962 H           1 DGX       0.0235
     67 H30       -11.3260   31.7192   27.7010 H           1 DGX       0.0235
     68 H31        -8.4552   33.5977   34.9490 H           1 DGX       0.0859
     69 H32        -9.2080   32.8478   36.3929 H           1 DGX       0.0859
     70 H33       -12.2634   34.3632   34.4345 H           1 DGX       0.0295
     71 H34       -12.6187   24.9110   25.7570 H           1 DGX       0.0910
     72 H35        -9.7237   25.4164   26.6293 H           1 DGX       0.0340
     73 H36       -10.4635   25.8101   25.0757 H           1 DGX       0.0340
     74 H37        -9.0225   23.7021   25.1226 H           1 DGX       0.0621
     75 H38       -10.5397   22.4687   23.9774 H           1 DGX       0.2099
     76 H39        -9.5853   22.8334   27.3444 H           1 DGX       0.0645
     77 H40        -9.9920   20.7277   26.7684 H           1 DGX       0.2100
     78 H41       -12.4498   22.4121   26.2821 H           1 DGX       0.0621
     79 H42       -13.0271   21.8271   28.6009 H           1 DGX       0.0255
     80 H43       -11.3564   22.0657   29.1174 H           1 DGX       0.0255
     81 H44       -11.7626   20.7235   28.0315 H           1 DGX       0.0255
@<TRIPOS>BOND
     1    11     1   1
     2     1     2   1
     3     2     3   1
     4     3     5   1
     5     3     4   1
     6     4    29   1
     7    29    36   1
     8    29    30   1
     9    30    31   1
    10    31    33   1
    11    31    32   1
    12    33    35   1
    13    33    34   1
    14    35    37   1
    15    36    35   1
    16     5     6   1
    17    11     6   1
    18     6     7   1
    19     7     8   1
    20     8     9   1
    21     9    16   1
    22     9    10   1
    23    10    12   1
    24    10    11   1
    25    11    22   1
    26    12    13   1
    27    13    15   1
    28    13    14   1
    29    15    21   1
    30    15    20   1
    31    15    16   1
    32    16    18   1
    33    16    17   1
    34    18    19   1
    35    20    19   1
    36    20    23   1
    37    23    26   2
    38    23    24   1
    39    24    25   1
    40    25    27   1
    41    27    28   2
    42    27    26   1
    43     1    38   1
    44     1    39   1
    45     2    40   1
    46     2    41   1
    47     3    42   1
    48     5    43   1
    49     5    44   1
    50     6    45   1
    51     7    46   1
    52     7    47   1
    53     8    48   1
    54     8    49   1
    55     9    50   1
    56    10    51   1
    57    12    52   1
    58    12    53   1
    59    13    54   1
    60    14    55   1
    61    17    56   1
    62    18    57   1
    63    18    58   1
    64    19    59   1
    65    19    60   1
    66    20    61   1
    67    21    62   1
    68    21    63   1
    69    21    64   1
    70    22    65   1
    71    22    66   1
    72    22    67   1
    73    24    68   1
    74    24    69   1
    75    26    70   1
    76    29    71   1
    77    30    72   1
    78    30    73   1
    79    31    74   1
    80    32    75   1
    81    33    76   1
    82    34    77   1
    83    35    78   1
    84    37    79   1
    85    37    80   1
    86    37    81   1
@<TRIPOS>SUBSTRUCTURE
     1  DGX      1

