@<TRIPOS>MOLECULE
1igj_ligand_081
    81    86
SMALL
GAST_HUCK
****
This file was generated by PARSER (from files_GN.cpp)

@<TRIPOS>ATOM
      1 C1        -14.2673   25.5000   26.9474 C.3         1 DGX      -0.0448
      2 C2        -14.3257   26.9888   26.5325 C.3         1 DGX      -0.0260
      3 C3        -13.2442   27.8318   27.2510 C.3         1 DGX       0.0620
      4 O3        -11.9505   27.4064   26.7678 O.3         1 DGX      -0.3480
      5 C4        -13.3859   27.6423   28.7855 C.3         1 DGX      -0.0232
      6 C5        -13.3386   26.1386   29.2253 C.3         1 DGX      -0.0330
      7 C6        -13.4225   26.0145   30.7730 C.3         1 DGX      -0.0493
      8 C7        -14.8284   26.3208   31.3353 C.3         1 DGX      -0.0470
      9 C8        -15.9525   25.4645   30.6650 C.3         1 DGX      -0.0079
     10 C9        -15.8563   25.5443   29.0863 C.3         1 DGX      -0.0276
     11 C10       -14.4129   25.2244   28.4991 C.3         1 DGX      -0.0258
     12 C11       -17.0083   24.6919   28.4632 C.3         1 DGX      -0.0223
     13 C12       -18.4176   25.0687   29.0000 C.3         1 DGX       0.0664
     14 O12       -19.4390   24.3012   28.3294 O.3         1 DGX      -0.3909
     15 C13       -18.5490   24.9769   30.5865 C.3         1 DGX       0.0405
     16 C14       -17.3758   25.7748   31.2658 C.3         1 DGX       0.0799
     17 O14       -17.3404   25.4263   32.6607 O.3         1 DGX      -0.3874
     18 C15       -17.8476   27.2522   31.2016 C.3         1 DGX      -0.0200
     19 C16       -19.3848   27.2276   31.3116 C.3         1 DGX      -0.0318
     20 C17       -19.8431   25.7610   31.0690 C.3         1 DGX       0.0177
     21 C18       -18.5690   23.4540   30.9738 C.3         1 DGX      -0.0516
     22 C19       -14.0429   23.7041   28.6754 C.3         1 DGX      -0.0590
     23 C20       -20.6382   25.2590   32.2166 C.2         1 DGX      -0.0063
     24 C21       -20.2133   25.0770   33.5970 C.3         1 DGX       0.1204
     25 O21       -21.4226   24.6966   34.2654 O.3         1 DGX      -0.2665
     26 C22       -21.9631   25.0408   32.1570 C.2         1 DGX       0.0017
     27 C23       -22.4338   24.6993   33.3724 C.2         1 DGX       0.2187
     28 O23       -23.7093   24.3712   33.6636 O.2         1 DGX      -0.3870
     29 C1X       -10.8480   28.3216   26.9099 C.3         1 DGX       0.1624
     30 C2X        -9.5429   27.4926   26.8077 C.3         1 DGX       0.0270
     31 C3X        -8.3037   28.4173   26.8226 C.3         1 DGX       0.0881
     32 O3X        -8.1063   28.9753   28.1230 O.3         1 DGX      -0.3890
     33 C4X        -8.4496   29.5433   25.7598 C.3         1 DGX       0.1070
     34 O4X        -7.3845   30.4767   25.9082 O.3         1 DGX      -0.3867
     35 C5X        -9.8247   30.2721   25.8732 C.3         1 DGX       0.0871
     36 O5X       -10.8989   29.3070   25.8572 O.3         1 DGX      -0.3456
     37 C6X       -10.0565   31.2815   24.7252 C.3         1 DGX      -0.0361
     38 H1        -15.0138   24.9513   26.3753 H           1 DGX       0.0271
     39 H2        -13.3026   25.1185   26.6004 H           1 DGX       0.0271
     40 H3        -15.3129   27.4047   26.7409 H           1 DGX       0.0290
     41 H4        -14.1671   27.0542   25.4558 H           1 DGX       0.0290
     42 H5        -13.4165   28.8824   26.9986 H           1 DGX       0.0597
     43 H6        -14.3218   28.1079   29.0943 H           1 DGX       0.0293
     44 H7        -12.5878   28.1924   29.2872 H           1 DGX       0.0293
     45 H8        -12.3437   25.7805   28.9451 H           1 DGX       0.0307
     46 H9        -12.6971   26.6889   31.2401 H           1 DGX       0.0268
     47 H10       -13.1398   25.0026   31.0692 H           1 DGX       0.0268
     48 H11       -15.0444   27.3821   31.2085 H           1 DGX       0.0269
     49 H12       -14.8046   26.1205   32.4078 H           1 DGX       0.0269
     50 H13       -15.7449   24.4271   30.9414 H           1 DGX       0.0332
     51 H14       -16.0855   26.5782   28.8235 H           1 DGX       0.0310
     52 H15       -16.8169   23.6308   28.6209 H           1 DGX       0.0293
     53 H16       -17.0196   24.8525   27.3770 H           1 DGX       0.0293
     54 H17       -18.6043   26.0944   28.6998 H           1 DGX       0.0602
     55 H18       -19.2672   23.3552   28.5311 H           1 DGX       0.2098
     56 H19       -16.7737   26.0966   33.0971 H           1 DGX       0.2102
     57 H20       -17.5540   27.7162   30.2595 H           1 DGX       0.0295
     58 H21       -17.4207   27.8519   32.0064 H           1 DGX       0.0295
     59 H22       -19.8297   27.8847   30.5588 H           1 DGX       0.0301
     60 H23       -19.6938   27.6173   32.2824 H           1 DGX       0.0301
     61 H24       -20.5367   25.7786   30.2210 H           1 DGX       0.0550
     62 H25       -19.5064   22.9860   30.6179 H           1 DGX       0.0239
     63 H26       -18.4789   23.2805   32.0232 H           1 DGX       0.0239
     64 H27       -17.7303   22.8986   30.5111 H           1 DGX       0.0239
     65 H28       -13.0066   23.5134   28.3935 H           1 DGX       0.0235
     66 H29       -14.6656   23.0688   28.0404 H           1 DGX       0.0235
     67 H30       -14.1664   23.3610   29.7008 H           1 DGX       0.0235
     68 H31       -19.8401   26.0146   34.0366 H           1 DGX       0.0859
     69 H32       -19.4808   24.3040   33.7100 H           1 DGX       0.0859
     70 H33       -22.5301   25.1811   31.3583 H           1 DGX       0.0295
     71 H34       -10.8725   28.8145   27.8854 H           1 DGX       0.0910
     72 H35        -9.5523   26.9181   25.8751 H           1 DGX       0.0340
     73 H36        -9.4891   26.7846   27.6398 H           1 DGX       0.0340
     74 H37        -7.4159   27.8258   26.5867 H           1 DGX       0.0621
     75 H38        -7.7869   28.2304   28.6838 H           1 DGX       0.2099
     76 H39        -8.3666   29.0938   24.7654 H           1 DGX       0.0645
     77 H40        -6.6077   29.9341   26.1785 H           1 DGX       0.2100
     78 H41        -9.8575   30.8313   26.8127 H           1 DGX       0.0621
     79 H42       -11.0300   31.7640   24.8424 H           1 DGX       0.0255
     80 H43       -10.0333   30.7801   23.7546 H           1 DGX       0.0255
     81 H44        -9.2885   32.0574   24.7365 H           1 DGX       0.0255
@<TRIPOS>BOND
     1    11     1   1
     2     1     2   1
     3     2     3   1
     4     3     5   1
     5     3     4   1
     6     4    29   1
     7    29    36   1
     8    29    30   1
     9    30    31   1
    10    31    33   1
    11    31    32   1
    12    33    35   1
    13    33    34   1
    14    35    37   1
    15    36    35   1
    16     5     6   1
    17    11     6   1
    18     6     7   1
    19     7     8   1
    20     8     9   1
    21     9    16   1
    22     9    10   1
    23    10    12   1
    24    10    11   1
    25    11    22   1
    26    12    13   1
    27    13    15   1
    28    13    14   1
    29    15    21   1
    30    15    20   1
    31    15    16   1
    32    16    18   1
    33    16    17   1
    34    18    19   1
    35    20    19   1
    36    20    23   1
    37    23    26   2
    38    23    24   1
    39    24    25   1
    40    25    27   1
    41    27    28   2
    42    27    26   1
    43     1    38   1
    44     1    39   1
    45     2    40   1
    46     2    41   1
    47     3    42   1
    48     5    43   1
    49     5    44   1
    50     6    45   1
    51     7    46   1
    52     7    47   1
    53     8    48   1
    54     8    49   1
    55     9    50   1
    56    10    51   1
    57    12    52   1
    58    12    53   1
    59    13    54   1
    60    14    55   1
    61    17    56   1
    62    18    57   1
    63    18    58   1
    64    19    59   1
    65    19    60   1
    66    20    61   1
    67    21    62   1
    68    21    63   1
    69    21    64   1
    70    22    65   1
    71    22    66   1
    72    22    67   1
    73    24    68   1
    74    24    69   1
    75    26    70   1
    76    29    71   1
    77    30    72   1
    78    30    73   1
    79    31    74   1
    80    32    75   1
    81    33    76   1
    82    34    77   1
    83    35    78   1
    84    37    79   1
    85    37    80   1
    86    37    81   1
@<TRIPOS>SUBSTRUCTURE
     1  DGX      1

