@<TRIPOS>MOLECULE
1igj_ligand_026
    81    86
SMALL
GAST_HUCK
****
This file was generated by PARSER (from files_GN.cpp)

@<TRIPOS>ATOM
      1 C1        -14.0617   27.5305   30.4506 C.3         1 DGX      -0.0448
      2 C2        -13.8547   26.8458   31.8270 C.3         1 DGX      -0.0260
      3 C3        -15.0580   27.1598   32.7587 C.3         1 DGX       0.0620
      4 O3        -16.3343   26.6967   32.2524 O.3         1 DGX      -0.3480
      5 C4        -15.1541   28.7023   32.9313 C.3         1 DGX      -0.0232
      6 C5        -15.2445   29.4936   31.5755 C.3         1 DGX      -0.0330
      7 C6        -15.3061   31.0337   31.8239 C.3         1 DGX      -0.0493
      8 C7        -13.9407   31.6368   32.2373 C.3         1 DGX      -0.0470
      9 C8        -12.7778   31.2828   31.2545 C.3         1 DGX      -0.0079
     10 C9        -12.7233   29.7423   30.9593 C.3         1 DGX      -0.0276
     11 C10       -14.1211   29.1054   30.5234 C.3         1 DGX      -0.0258
     12 C11       -11.5366   29.4425   29.9852 C.3         1 DGX      -0.0223
     13 C12       -10.1909   29.9219   30.5751 C.3         1 DGX       0.0664
     14 O12        -9.1089   29.5075   29.7374 O.3         1 DGX      -0.3909
     15 C13       -10.1280   31.4721   30.8742 C.3         1 DGX       0.0405
     16 C14       -11.3961   31.9088   31.7140 C.3         1 DGX       0.0799
     17 O14       -11.5670   33.3394   31.6707 O.3         1 DGX      -0.3874
     18 C15       -10.9592   31.6076   33.1712 C.3         1 DGX      -0.0200
     19 C16        -9.5024   32.0941   33.2255 C.3         1 DGX      -0.0318
     20 C17        -8.8893   31.7322   31.8429 C.3         1 DGX       0.0177
     21 C18       -10.0768   32.2649   29.5157 C.3         1 DGX      -0.0516
     22 C19       -14.5519   29.5891   29.0888 C.3         1 DGX      -0.0590
     23 C20        -7.8129   32.6145   31.3645 C.2         1 DGX      -0.0063
     24 C21        -7.6301   34.0175   31.6782 C.3         1 DGX       0.1204
     25 O21        -6.4743   34.3581   30.9136 O.3         1 DGX      -0.2665
     26 C22        -6.8485   32.2260   30.5242 C.2         1 DGX       0.0017
     27 C23        -6.0383   33.2730   30.2462 C.2         1 DGX       0.2187
     28 O23        -4.9581   33.2481   29.4332 O.2         1 DGX      -0.3870
     29 C1X       -16.6485   25.2867   32.2635 C.3         1 DGX       0.1624
     30 C2X       -18.0821   25.1273   31.6976 C.3         1 DGX       0.0270
     31 C3X       -18.4496   23.6453   31.4108 C.3         1 DGX       0.0881
     32 O3X       -18.7814   22.9922   32.6347 O.3         1 DGX      -0.3890
     33 C4X       -17.3117   22.8899   30.6640 C.3         1 DGX       0.1070
     34 O4X       -17.5804   21.4911   30.5940 O.3         1 DGX      -0.3867
     35 C5X       -15.9359   23.1361   31.3434 C.3         1 DGX       0.0871
     36 O5X       -15.7154   24.5584   31.4384 O.3         1 DGX      -0.3456
     37 C6X       -14.7389   22.5357   30.5631 C.3         1 DGX      -0.0361
     38 H1        -13.2865   27.1897   29.7667 H           1 DGX       0.0271
     39 H2        -15.0008   27.1496   30.0352 H           1 DGX       0.0271
     40 H3        -12.9353   27.1837   32.2962 H           1 DGX       0.0290
     41 H4        -13.7233   25.7735   31.6911 H           1 DGX       0.0290
     42 H5        -14.8758   26.7142   33.7415 H           1 DGX       0.0597
     43 H6        -14.2835   29.0320   33.5000 H           1 DGX       0.0293
     44 H7        -16.0346   28.9271   33.5395 H           1 DGX       0.0293
     45 H8        -16.2169   29.2213   31.1499 H           1 DGX       0.0307
     46 H9        -16.0412   31.2568   32.6021 H           1 DGX       0.0268
     47 H10       -15.6511   31.5405   30.9196 H           1 DGX       0.0268
     48 H11       -13.7045   31.2889   33.2435 H           1 DGX       0.0269
     49 H12       -14.0530   32.7231   32.2898 H           1 DGX       0.0269
     50 H13       -13.0252   31.7688   30.3081 H           1 DGX       0.0332
     51 H14       -12.4511   29.2909   31.9112 H           1 DGX       0.0310
     52 H15       -11.7025   29.9105   29.0141 H           1 DGX       0.0293
     53 H16       -11.4362   28.3707   29.8182 H           1 DGX       0.0293
     54 H17       -10.0614   29.3664   31.5098 H           1 DGX       0.0602
     55 H18        -9.1073   28.5264   29.7774 H           1 DGX       0.2098
     56 H19       -11.8770   33.5543   30.7658 H           1 DGX       0.2102
     57 H20       -11.0060   30.5383   33.3927 H           1 DGX       0.0295
     58 H21       -11.5647   32.1398   33.9100 H           1 DGX       0.0295
     59 H22        -8.9675   31.6168   34.0507 H           1 DGX       0.0301
     60 H23        -9.5100   33.1715   33.4039 H           1 DGX       0.0301
     61 H24        -8.3692   30.7871   32.0401 H           1 DGX       0.0550
     62 H25        -9.2762   31.8973   28.8770 H           1 DGX       0.0239
     63 H26        -9.9011   33.3280   29.6861 H           1 DGX       0.0239
     64 H27       -11.0111   32.1735   28.9617 H           1 DGX       0.0239
     65 H28       -15.5545   29.2335   28.8405 H           1 DGX       0.0235
     66 H29       -13.8761   29.2081   28.3224 H           1 DGX       0.0235
     67 H30       -14.5657   30.6748   29.0028 H           1 DGX       0.0235
     68 H31        -7.4294   34.1717   32.7404 H           1 DGX       0.0859
     69 H32        -8.4885   34.6128   31.3600 H           1 DGX       0.0859
     70 H33        -6.7380   31.3144   30.1455 H           1 DGX       0.0295
     71 H34       -16.6127   24.9114   33.2905 H           1 DGX       0.0910
     72 H35       -18.1526   25.6894   30.7655 H           1 DGX       0.0340
     73 H36       -18.8026   25.5581   32.3953 H           1 DGX       0.0340
     74 H37       -19.3447   23.6358   30.7860 H           1 DGX       0.0621
     75 H38       -19.2932   22.2027   32.3577 H           1 DGX       0.2099
     76 H39       -17.2620   23.2648   29.6381 H           1 DGX       0.0645
     77 H40       -18.5030   21.4139   30.2827 H           1 DGX       0.2100
     78 H41       -15.9301   22.6984   32.3458 H           1 DGX       0.0621
     79 H42       -13.8069   22.7646   31.0835 H           1 DGX       0.0255
     80 H43       -14.6865   22.9594   29.5565 H           1 DGX       0.0255
     81 H44       -14.8344   21.4537   30.4870 H           1 DGX       0.0255
@<TRIPOS>BOND
     1    11     1   1
     2     1     2   1
     3     2     3   1
     4     3     5   1
     5     3     4   1
     6     4    29   1
     7    29    36   1
     8    29    30   1
     9    30    31   1
    10    31    33   1
    11    31    32   1
    12    33    35   1
    13    33    34   1
    14    35    37   1
    15    36    35   1
    16     5     6   1
    17    11     6   1
    18     6     7   1
    19     7     8   1
    20     8     9   1
    21     9    16   1
    22     9    10   1
    23    10    12   1
    24    10    11   1
    25    11    22   1
    26    12    13   1
    27    13    15   1
    28    13    14   1
    29    15    21   1
    30    15    20   1
    31    15    16   1
    32    16    18   1
    33    16    17   1
    34    18    19   1
    35    20    19   1
    36    20    23   1
    37    23    26   2
    38    23    24   1
    39    24    25   1
    40    25    27   1
    41    27    28   2
    42    27    26   1
    43     1    38   1
    44     1    39   1
    45     2    40   1
    46     2    41   1
    47     3    42   1
    48     5    43   1
    49     5    44   1
    50     6    45   1
    51     7    46   1
    52     7    47   1
    53     8    48   1
    54     8    49   1
    55     9    50   1
    56    10    51   1
    57    12    52   1
    58    12    53   1
    59    13    54   1
    60    14    55   1
    61    17    56   1
    62    18    57   1
    63    18    58   1
    64    19    59   1
    65    19    60   1
    66    20    61   1
    67    21    62   1
    68    21    63   1
    69    21    64   1
    70    22    65   1
    71    22    66   1
    72    22    67   1
    73    24    68   1
    74    24    69   1
    75    26    70   1
    76    29    71   1
    77    30    72   1
    78    30    73   1
    79    31    74   1
    80    32    75   1
    81    33    76   1
    82    34    77   1
    83    35    78   1
    84    37    79   1
    85    37    80   1
    86    37    81   1
@<TRIPOS>SUBSTRUCTURE
     1  DGX      1

