@<TRIPOS>MOLECULE
1igj_ligand_023
    81    86
SMALL
GAST_HUCK
****
This file was generated by PARSER (from files_GN.cpp)

@<TRIPOS>ATOM
      1 C1        -13.7503   24.3754   27.5315 C.3         1 DGX      -0.0448
      2 C2        -14.2788   25.5130   26.6109 C.3         1 DGX      -0.0260
      3 C3        -13.4831   26.8278   26.8215 C.3         1 DGX       0.0620
      4 O3        -12.1135   26.5758   26.4068 O.3         1 DGX      -0.3480
      5 C4        -13.6693   27.2159   28.3130 C.3         1 DGX      -0.0232
      6 C5        -12.9981   26.1447   29.2360 C.3         1 DGX      -0.0330
      7 C6        -12.9306   26.6567   30.6993 C.3         1 DGX      -0.0493
      8 C7        -14.3178   26.6831   31.3635 C.3         1 DGX      -0.0470
      9 C8        -15.0220   25.2924   31.3023 C.3         1 DGX      -0.0079
     10 C9        -15.0500   24.6754   29.8462 C.3         1 DGX      -0.0276
     11 C10       -13.6467   24.7046   29.0843 C.3         1 DGX      -0.0258
     12 C11       -15.7053   23.2585   29.9315 C.3         1 DGX      -0.0223
     13 C12       -17.1040   23.2693   30.5978 C.3         1 DGX       0.0664
     14 O12       -17.5725   21.9167   30.5966 O.3         1 DGX      -0.3909
     15 C13       -17.1624   23.9324   32.0378 C.3         1 DGX       0.0405
     16 C14       -16.4272   25.3229   32.0183 C.3         1 DGX       0.0799
     17 O14       -16.2191   25.7647   33.3722 O.3         1 DGX      -0.3874
     18 C15       -17.4814   26.2882   31.4129 C.3         1 DGX      -0.0200
     19 C16       -18.8308   25.8239   31.9906 C.3         1 DGX      -0.0318
     20 C17       -18.6633   24.3203   32.3792 C.3         1 DGX       0.0177
     21 C18       -16.5096   22.9476   33.0758 C.3         1 DGX      -0.0516
     22 C19       -12.6677   23.6208   29.6712 C.3         1 DGX      -0.0590
     23 C20       -19.1642   24.0105   33.7288 C.2         1 DGX      -0.0063
     24 C21       -20.0568   22.9049   34.0197 C.3         1 DGX       0.1204
     25 O21       -20.2247   23.0020   35.4339 O.3         1 DGX      -0.2665
     26 C22       -18.8671   24.6415   34.8706 C.2         1 DGX       0.0017
     27 C23       -19.5057   24.0407   35.9001 C.2         1 DGX       0.2187
     28 O23       -19.4433   24.4183   37.1958 O.2         1 DGX      -0.3870
     29 C1X       -11.0646   27.5046   26.7474 C.3         1 DGX       0.1624
     30 C2X        -9.7030   26.7718   26.6135 C.3         1 DGX       0.0270
     31 C3X        -8.5375   27.7415   26.9552 C.3         1 DGX       0.0881
     32 O3X        -8.5310   28.0449   28.3549 O.3         1 DGX      -0.3890
     33 C4X        -8.6593   29.0489   26.1191 C.3         1 DGX       0.1070
     34 O4X        -7.6850   29.9966   26.5527 O.3         1 DGX      -0.3867
     35 C5X       -10.0927   29.6589   26.2247 C.3         1 DGX       0.0871
     36 O5X       -11.0968   28.6677   25.8940 O.3         1 DGX      -0.3456
     37 C6X       -10.2941   30.8778   25.2950 C.3         1 DGX      -0.0361
     38 H1        -14.3625   23.4909   27.3586 H           1 DGX       0.0271
     39 H2        -12.7552   24.1242   27.1487 H           1 DGX       0.0271
     40 H3        -15.3371   25.6825   26.8205 H           1 DGX       0.0290
     41 H4        -14.1983   25.2071   25.5632 H           1 DGX       0.0290
     42 H5        -13.9077   27.6137   26.1916 H           1 DGX       0.0597
     43 H6        -14.7395   27.3016   28.5292 H           1 DGX       0.0293
     44 H7        -13.2488   28.2085   28.4901 H           1 DGX       0.0293
     45 H8        -11.9527   26.0694   28.9262 H           1 DGX       0.0307
     46 H9        -12.4960   27.6600   30.7306 H           1 DGX       0.0268
     47 H10       -12.2702   26.0098   31.2738 H           1 DGX       0.0268
     48 H11       -14.9361   27.4466   30.8877 H           1 DGX       0.0269
     49 H12       -14.1654   26.9870   32.4029 H           1 DGX       0.0269
     50 H13       -14.3987   24.6334   31.9122 H           1 DGX       0.0332
     51 H14       -15.7292   25.2830   29.2481 H           1 DGX       0.0310
     52 H15       -15.0614   22.5754   30.4873 H           1 DGX       0.0293
     53 H16       -15.8253   22.8456   28.9279 H           1 DGX       0.0293
     54 H17       -17.7607   23.8173   29.9196 H           1 DGX       0.0602
     55 H18       -18.5397   21.9643   30.4777 H           1 DGX       0.2098
     56 H19       -16.1118   26.7377   33.3385 H           1 DGX       0.2102
     57 H20       -17.5089   26.2150   30.3271 H           1 DGX       0.0295
     58 H21       -17.2836   27.3326   31.6683 H           1 DGX       0.0295
     59 H22       -19.6239   25.9581   31.2484 H           1 DGX       0.0301
     60 H23       -19.0786   26.4512   32.8514 H           1 DGX       0.0301
     61 H24       -19.3219   23.7639   31.7026 H           1 DGX       0.0550
     62 H25       -17.1026   22.0368   33.1546 H           1 DGX       0.0239
     63 H26       -16.4508   23.3840   34.0726 H           1 DGX       0.0239
     64 H27       -15.4958   22.6722   32.7885 H           1 DGX       0.0239
     65 H28       -11.6490   23.7642   29.3020 H           1 DGX       0.0235
     66 H29       -12.9735   22.6126   29.3845 H           1 DGX       0.0235
     67 H30       -12.6356   23.6578   30.7557 H           1 DGX       0.0235
     68 H31       -19.6026   21.9465   33.7572 H           1 DGX       0.0859
     69 H32       -21.0156   23.0223   33.5100 H           1 DGX       0.0859
     70 H33       -18.2780   25.4318   34.9679 H           1 DGX       0.0295
     71 H34       -11.1643   27.8235   27.7889 H           1 DGX       0.0910
     72 H35        -9.5861   26.4149   25.5855 H           1 DGX       0.0340
     73 H36        -9.6736   25.9031   27.2799 H           1 DGX       0.0340
     74 H37        -7.5832   27.2593   26.7238 H           1 DGX       0.0621
     75 H38        -7.8563   27.4546   28.7560 H           1 DGX       0.2099
     76 H39        -8.4499   28.8157   25.0713 H           1 DGX       0.0645
     77 H40        -6.8316   29.5141   26.5597 H           1 DGX       0.2100
     78 H41       -10.2566   30.0087   27.2514 H           1 DGX       0.0621
     79 H42       -11.2973   31.2866   25.4349 H           1 DGX       0.0255
     80 H43       -10.1784   30.5874   24.2486 H           1 DGX       0.0255
     81 H44        -9.5702   31.6633   25.5255 H           1 DGX       0.0255
@<TRIPOS>BOND
     1    11     1   1
     2     1     2   1
     3     2     3   1
     4     3     5   1
     5     3     4   1
     6     4    29   1
     7    29    36   1
     8    29    30   1
     9    30    31   1
    10    31    33   1
    11    31    32   1
    12    33    35   1
    13    33    34   1
    14    35    37   1
    15    36    35   1
    16     5     6   1
    17    11     6   1
    18     6     7   1
    19     7     8   1
    20     8     9   1
    21     9    16   1
    22     9    10   1
    23    10    12   1
    24    10    11   1
    25    11    22   1
    26    12    13   1
    27    13    15   1
    28    13    14   1
    29    15    21   1
    30    15    20   1
    31    15    16   1
    32    16    18   1
    33    16    17   1
    34    18    19   1
    35    20    19   1
    36    20    23   1
    37    23    26   2
    38    23    24   1
    39    24    25   1
    40    25    27   1
    41    27    28   2
    42    27    26   1
    43     1    38   1
    44     1    39   1
    45     2    40   1
    46     2    41   1
    47     3    42   1
    48     5    43   1
    49     5    44   1
    50     6    45   1
    51     7    46   1
    52     7    47   1
    53     8    48   1
    54     8    49   1
    55     9    50   1
    56    10    51   1
    57    12    52   1
    58    12    53   1
    59    13    54   1
    60    14    55   1
    61    17    56   1
    62    18    57   1
    63    18    58   1
    64    19    59   1
    65    19    60   1
    66    20    61   1
    67    21    62   1
    68    21    63   1
    69    21    64   1
    70    22    65   1
    71    22    66   1
    72    22    67   1
    73    24    68   1
    74    24    69   1
    75    26    70   1
    76    29    71   1
    77    30    72   1
    78    30    73   1
    79    31    74   1
    80    32    75   1
    81    33    76   1
    82    34    77   1
    83    35    78   1
    84    37    79   1
    85    37    80   1
    86    37    81   1
@<TRIPOS>SUBSTRUCTURE
     1  DGX      1

