@<TRIPOS>MOLECULE
1igj_ligand_062
    81    86
SMALL
GAST_HUCK
****
This file was generated by PARSER (from files_GN.cpp)

@<TRIPOS>ATOM
      1 C1        -17.3368   26.6303   31.3243 C.3         1 DGX      -0.0448
      2 C2        -16.2345   27.7005   31.5477 C.3         1 DGX      -0.0260
      3 C3        -14.8033   27.1402   31.3551 C.3         1 DGX       0.0620
      4 O3        -14.5530   26.8169   29.9732 O.3         1 DGX      -0.3480
      5 C4        -14.6284   25.8543   32.1993 C.3         1 DGX      -0.0232
      6 C5        -15.7199   24.7688   31.9076 C.3         1 DGX      -0.0330
      7 C6        -15.4211   23.4585   32.6904 C.3         1 DGX      -0.0493
      8 C7        -15.6548   23.6150   34.2105 C.3         1 DGX      -0.0470
      9 C8        -17.0700   24.1767   34.5641 C.3         1 DGX      -0.0079
     10 C9        -17.4566   25.4504   33.7118 C.3         1 DGX      -0.0276
     11 C10       -17.1944   25.2891   32.1465 C.3         1 DGX      -0.0258
     12 C11       -18.9020   25.8921   34.1110 C.3         1 DGX      -0.0223
     13 C12       -19.0345   26.1642   35.6360 C.3         1 DGX       0.0664
     14 O12       -20.3538   26.6494   35.8912 O.3         1 DGX      -0.3909
     15 C13       -18.6601   24.9336   36.5641 C.3         1 DGX       0.0405
     16 C14       -17.2590   24.3575   36.1257 C.3         1 DGX       0.0799
     17 O14       -17.0432   23.0725   36.7366 O.3         1 DGX      -0.3874
     18 C15       -16.2456   25.3111   36.8126 C.3         1 DGX      -0.0200
     19 C16       -16.8549   25.6149   38.1868 C.3         1 DGX      -0.0318
     20 C17       -18.4035   25.4481   38.0488 C.3         1 DGX       0.0177
     21 C18       -19.7857   23.8392   36.4380 C.3         1 DGX      -0.0516
     22 C19       -18.2333   24.2932   31.5067 C.3         1 DGX      -0.0590
     23 C20       -19.0396   24.7026   39.1516 C.2         1 DGX      -0.0063
     24 C21       -18.4456   23.7272   40.0482 C.3         1 DGX       0.1204
     25 O21       -19.5470   23.3078   40.8462 O.3         1 DGX      -0.2665
     26 C22       -20.3403   24.8184   39.4496 C.2         1 DGX       0.0017
     27 C23       -20.6490   23.9828   40.4673 C.2         1 DGX       0.2187
     28 O23       -21.8711   23.8276   41.0202 O.2         1 DGX      -0.3870
     29 C1X       -13.3016   27.1794   29.3558 C.3         1 DGX       0.1624
     30 C2X       -12.0007   26.7515   30.1024 C.3         1 DGX       0.0270
     31 C3X       -10.7476   27.0677   29.2499 C.3         1 DGX       0.0881
     32 O3X       -10.5868   28.4781   29.1031 O.3         1 DGX      -0.3890
     33 C4X       -10.8690   26.3831   27.8671 C.3         1 DGX       0.1070
     34 O4X        -9.7491   26.7425   27.0619 O.3         1 DGX      -0.3867
     35 C5X       -12.2208   26.7557   27.1859 C.3         1 DGX       0.0871
     36 O5X       -13.3403   26.5249   28.0756 O.3         1 DGX      -0.3456
     37 C6X       -12.4720   25.9162   25.9093 C.3         1 DGX      -0.0361
     38 H1        -18.3068   27.0981   31.5035 H           1 DGX       0.0271
     39 H2        -17.3069   26.3997   30.2556 H           1 DGX       0.0271
     40 H3        -16.3328   28.1164   32.5551 H           1 DGX       0.0290
     41 H4        -16.3844   28.5247   30.8395 H           1 DGX       0.0290
     42 H5        -14.1198   27.9099   31.7202 H           1 DGX       0.0597
     43 H6        -14.6195   26.1381   33.2553 H           1 DGX       0.0293
     44 H7        -13.6513   25.4296   31.9950 H           1 DGX       0.0293
     45 H8        -15.6141   24.5160   30.8508 H           1 DGX       0.0307
     46 H9        -14.3848   23.1505   32.5187 H           1 DGX       0.0268
     47 H10       -16.0511   22.6516   32.3106 H           1 DGX       0.0268
     48 H11       -14.8817   24.2655   34.6179 H           1 DGX       0.0269
     49 H12       -15.5255   22.6309   34.6691 H           1 DGX       0.0269
     50 H13       -17.7683   23.3863   34.2741 H           1 DGX       0.0332
     51 H14       -16.8027   26.2558   34.0434 H           1 DGX       0.0310
     52 H15       -19.6279   25.1363   33.8160 H           1 DGX       0.0293
     53 H16       -19.1604   26.8142   33.5915 H           1 DGX       0.0293
     54 H17       -18.3679   27.0015   35.8559 H           1 DGX       0.0602
     55 H18       -20.3451   26.9799   36.8104 H           1 DGX       0.2098
     56 H19       -17.6420   22.4525   36.2885 H           1 DGX       0.2102
     57 H20       -16.1251   26.2450   36.2601 H           1 DGX       0.0295
     58 H21       -15.2580   24.8602   36.9212 H           1 DGX       0.0295
     59 H22       -16.5900   26.6251   38.5145 H           1 DGX       0.0301
     60 H23       -16.4019   24.9255   38.8948 H           1 DGX       0.0301
     61 H24       -18.7975   26.4633   38.1486 H           1 DGX       0.0550
     62 H25       -20.7651   24.2508   36.6816 H           1 DGX       0.0239
     63 H26       -19.6059   23.0009   37.1147 H           1 DGX       0.0239
     64 H27       -19.8446   23.4276   35.4315 H           1 DGX       0.0239
     65 H28       -17.9708   24.0563   30.4729 H           1 DGX       0.0235
     66 H29       -19.2382   24.7240   31.4917 H           1 DGX       0.0235
     67 H30       -18.2956   23.3485   32.0449 H           1 DGX       0.0235
     68 H31       -17.6841   24.1808   40.6899 H           1 DGX       0.0859
     69 H32       -18.0252   22.8856   39.4912 H           1 DGX       0.0859
     70 H33       -20.9964   25.4021   38.9912 H           1 DGX       0.0295
     71 H34       -13.3003   28.2634   29.2129 H           1 DGX       0.0910
     72 H35       -12.0311   25.6757   30.2947 H           1 DGX       0.0340
     73 H36       -11.9097   27.2683   31.0640 H           1 DGX       0.0340
     74 H37        -9.8619   26.6869   29.7649 H           1 DGX       0.0621
     75 H38       -10.4653   28.8303   30.0017 H           1 DGX       0.2099
     76 H39       -10.8266   25.3024   28.0217 H           1 DGX       0.0645
     77 H40        -9.7386   26.1100   26.3217 H           1 DGX       0.2100
     78 H41       -12.2089   27.8117   26.8960 H           1 DGX       0.0621
     79 H42       -13.4301   26.1899   25.4616 H           1 DGX       0.0255
     80 H43       -12.4967   24.8489   26.1507 H           1 DGX       0.0255
     81 H44       -11.6835   26.0924   25.1739 H           1 DGX       0.0255
@<TRIPOS>BOND
     1    11     1   1
     2     1     2   1
     3     2     3   1
     4     3     5   1
     5     3     4   1
     6     4    29   1
     7    29    36   1
     8    29    30   1
     9    30    31   1
    10    31    33   1
    11    31    32   1
    12    33    35   1
    13    33    34   1
    14    35    37   1
    15    36    35   1
    16     5     6   1
    17    11     6   1
    18     6     7   1
    19     7     8   1
    20     8     9   1
    21     9    16   1
    22     9    10   1
    23    10    12   1
    24    10    11   1
    25    11    22   1
    26    12    13   1
    27    13    15   1
    28    13    14   1
    29    15    21   1
    30    15    20   1
    31    15    16   1
    32    16    18   1
    33    16    17   1
    34    18    19   1
    35    20    19   1
    36    20    23   1
    37    23    26   2
    38    23    24   1
    39    24    25   1
    40    25    27   1
    41    27    28   2
    42    27    26   1
    43     1    38   1
    44     1    39   1
    45     2    40   1
    46     2    41   1
    47     3    42   1
    48     5    43   1
    49     5    44   1
    50     6    45   1
    51     7    46   1
    52     7    47   1
    53     8    48   1
    54     8    49   1
    55     9    50   1
    56    10    51   1
    57    12    52   1
    58    12    53   1
    59    13    54   1
    60    14    55   1
    61    17    56   1
    62    18    57   1
    63    18    58   1
    64    19    59   1
    65    19    60   1
    66    20    61   1
    67    21    62   1
    68    21    63   1
    69    21    64   1
    70    22    65   1
    71    22    66   1
    72    22    67   1
    73    24    68   1
    74    24    69   1
    75    26    70   1
    76    29    71   1
    77    30    72   1
    78    30    73   1
    79    31    74   1
    80    32    75   1
    81    33    76   1
    82    34    77   1
    83    35    78   1
    84    37    79   1
    85    37    80   1
    86    37    81   1
@<TRIPOS>SUBSTRUCTURE
     1  DGX      1

