@<TRIPOS>MOLECULE
1jyq_ligand_057
    85    87
SMALL
GAST_HUCK
****
This file was generated by PARSER (from files_GN.cpp)

@<TRIPOS>ATOM
      1 C1        -29.1797   40.9164   42.6840 C.ar        1 MOL      -0.0801
      2 C2        -28.3237   41.6594   41.8524 C.ar        1 MOL      -0.0711
      3 C3        -28.7068   41.9824   40.5303 C.ar        1 MOL      -0.0250
      4 C4        -29.9684   41.5437   40.0593 C.ar        1 MOL      -0.0414
      5 C6        -30.4319   40.4911   42.2083 C.ar        1 MOL      -0.0516
      6 C12       -27.7975   42.7417   39.6370 C.3         1 MOL       0.1084
      7 O13       -28.4328   43.9422   39.1956 O.3         1 MOL      -0.2508
      8 C16       -29.0579   44.1769   38.0156 C.2         1 MOL       0.3241
      9 O18       -29.2096   43.2031   37.0847 O.2         1 MOL      -0.3773
     10 N11       -32.0249   40.3840   40.4345 N.pl3       1 MOL      -0.3383
     11 C5        -30.8300   40.8023   40.8936 C.ar        1 MOL       0.0282
     12 N         -29.5948   45.4065   37.8916 N.am        1 MOL      -0.2380
     13 CA        -30.5149   45.8729   36.8920 C.3         1 MOL       0.1484
     14 C         -29.9745   47.0399   36.1807 C.2         1 MOL       0.2046
     15 O         -30.3623   47.2522   35.0395 O.2         1 MOL      -0.3944
     16 CB        -31.9372   46.1516   37.5146 C.3         1 MOL       0.0400
     17 CG        -32.1316   45.7097   38.9306 C.ar        1 MOL      -0.0004
     18 CD1       -32.8349   44.5234   39.2493 C.ar        1 MOL      -0.0239
     19 CD2       -31.5418   46.4491   39.9856 C.ar        1 MOL      -0.0239
     20 CE1       -32.9513   44.0958   40.5870 C.ar        1 MOL       0.0115
     21 CE2       -31.6499   46.0165   41.3190 C.ar        1 MOL       0.0115
     22 CZ        -32.3737   44.8480   41.6308 C.ar        1 MOL       0.1728
     23 OH        -32.4274   44.4103   42.9241 O.3         1 MOL      -0.2040
     24 P         -33.6845   44.8793   43.7230 P.3         1 MOL       0.1348
     25 O1P       -34.5513   45.8440   43.0906 O.co2       1 MOL      -0.6653
     26 O2P       -33.2316   45.4538   44.9666 O.co2       1 MOL      -0.6653
     27 O3P       -34.4663   43.7223   44.0767 O.co2       1 MOL      -0.6653
     28 N         -29.0802   47.8490   36.7430 N.am        1 MOL      -0.2712
     29 CA        -28.3989   49.0151   36.2125 C.3         1 MOL       0.1461
     30 CH3       -27.0772   49.0744   37.0624 C.3         1 MOL      -0.0287
     31 C         -29.2034   50.2347   36.4711 C.2         1 MOL       0.2294
     32 O         -30.4141   50.1408   36.6356 O.2         1 MOL      -0.3416
     33 CB        -28.0321   48.8948   34.6731 C.3         1 MOL       0.0325
     34 CG        -27.8760   47.5432   34.0427 C.ar        1 MOL      -0.0034
     35 CD1       -27.5776   46.3857   34.8017 C.ar        1 MOL      -0.0242
     36 CD2       -28.0064   47.3960   32.6380 C.ar        1 MOL      -0.0242
     37 CE1       -27.5088   45.1167   34.1922 C.ar        1 MOL       0.0115
     38 CE2       -27.8809   46.1365   32.0258 C.ar        1 MOL       0.0115
     39 CZ        -27.6367   44.9797   32.7923 C.ar        1 MOL       0.1728
     40 OH        -27.6306   43.7691   32.1405 O.3         1 MOL      -0.2040
     41 P         -26.3886   42.8540   32.3412 P.3         1 MOL       0.1348
     42 O1P       -26.5374   42.0574   33.5344 O.co2       1 MOL      -0.6653
     43 O2P       -25.1397   43.5799   32.3960 O.co2       1 MOL      -0.6653
     44 O3P       -26.3009   41.9352   31.2283 O.co2       1 MOL      -0.6653
     45 N         -28.6569   51.4464   36.4927 N.am        1 MOL      -0.2663
     46 CA        -29.3030   52.6852   36.8316 C.3         1 MOL       0.1112
     47 C         -28.2948   53.7701   36.8044 C.2         1 MOL       0.0626
     48 O         -27.3881   53.9006   37.7995 O.co2       1 MOL      -0.5664
     49 CB        -30.0949   52.6627   38.1889 C.3         1 MOL       0.0720
     50 CG        -29.5803   51.7695   39.2173 C.2         1 MOL       0.1774
     51 OD1       -30.2760   50.8742   39.6808 O.2         1 MOL      -0.3971
     52 ND2       -28.3460   51.8618   39.6624 N.am        1 MOL      -0.3007
     53 OXT       -28.2399   54.6590   35.7890 O.co2       1 MOL      -0.5664
     54 H1        -28.8885   40.6837   43.6337 H           1 MOL       0.0566
     55 H2        -27.4137   41.9536   42.2134 H           1 MOL       0.0448
     56 H3        -30.2597   41.7573   39.1000 H           1 MOL       0.0451
     57 H4        -31.0478   39.9520   42.8213 H           1 MOL       0.0459
     58 H5        -27.5137   42.1117   38.7933 H           1 MOL       0.0774
     59 H6        -26.8788   43.0385   40.1471 H           1 MOL       0.0774
     60 H7        -32.2995   40.5939   39.5276 H           1 MOL       0.1718
     61 H8        -32.6152   39.8714   41.0109 H           1 MOL       0.1718
     62 H9        -29.3954   46.0248   38.6116 H           1 MOL       0.1902
     63 H10       -30.6325   45.0797   36.1485 H           1 MOL       0.0839
     64 H11       -32.6908   45.6731   36.8793 H           1 MOL       0.0584
     65 H12       -32.1706   47.2203   37.4789 H           1 MOL       0.0584
     66 H13       -33.2498   43.9529   38.5097 H           1 MOL       0.0703
     67 H14       -31.0075   47.2984   39.7861 H           1 MOL       0.0703
     68 H15       -33.4521   43.2331   40.8014 H           1 MOL       0.0736
     69 H16       -31.2010   46.5524   42.0643 H           1 MOL       0.0736
     70 H17       -28.8452   47.6227   37.6578 H           1 MOL       0.1842
     71 H18       -26.4202   49.8797   36.7305 H           1 MOL       0.0244
     72 H19       -26.5073   48.1461   36.9809 H           1 MOL       0.0244
     73 H20       -27.2975   49.2355   38.1199 H           1 MOL       0.0244
     74 H21       -27.1068   49.4445   34.4686 H           1 MOL       0.0549
     75 H22       -28.7970   49.4319   34.1020 H           1 MOL       0.0549
     76 H23       -27.4384   46.4469   35.8097 H           1 MOL       0.0703
     77 H24       -28.2046   48.2075   32.0464 H           1 MOL       0.0703
     78 H25       -27.3602   44.2896   34.7722 H           1 MOL       0.0736
     79 H26       -27.9907   46.0600   31.0126 H           1 MOL       0.0736
     80 H27       -27.7066   51.5008   36.2976 H           1 MOL       0.1883
     81 H28       -30.0217   52.9010   36.0354 H           1 MOL       0.0754
     82 H29       -31.1263   52.3720   37.9689 H           1 MOL       0.0544
     83 H30       -30.1543   53.6688   38.6167 H           1 MOL       0.0544
     84 H31       -28.0223   51.2301   40.3277 H           1 MOL       0.1814
     85 H32       -27.7514   52.5469   39.3191 H           1 MOL       0.1814
@<TRIPOS>BOND
     1     1     5  ar
     2     2     1  ar
     3     3     2  ar
     4     6     3   1
     5     3     4  ar
     6     4    11  ar
     7    11    10   1
     8    11     5  ar
     9     7     6   1
    10     8     7   1
    11     8     9   2
    12    13    12   1
    13    13    16   1
    14    14    13   1
    15    14    15   2
    16    16    17   1
    17    17    19  ar
    18    17    18  ar
    19    18    20  ar
    20    20    22  ar
    21    22    23   1
    22    21    22  ar
    23    19    21  ar
    24    23    24   1
    25    24    27  ar
    26    24    26  ar
    27    24    25  ar
    28    29    28   1
    29    29    33   1
    30    31    29   1
    31    29    30   1
    32    31    32   2
    33    33    34   1
    34    34    36  ar
    35    34    35  ar
    36    35    37  ar
    37    37    39  ar
    38    39    40   1
    39    38    39  ar
    40    36    38  ar
    41    40    41   1
    42    41    44  ar
    43    41    43  ar
    44    41    42  ar
    45    46    47   1
    46    46    49   1
    47    45    46   1
    48    49    50   1
    49    50    51   2
    50    50    52  am
    51    47    53  ar
    52    47    48  ar
    53    28    14  am
    54    12     8  am
    55    31    45  am
    56     1    54   1
    57     2    55   1
    58     4    56   1
    59     5    57   1
    60     6    58   1
    61     6    59   1
    62    10    60   1
    63    10    61   1
    64    12    62   1
    65    13    63   1
    66    16    64   1
    67    16    65   1
    68    18    66   1
    69    19    67   1
    70    20    68   1
    71    21    69   1
    72    28    70   1
    73    30    71   1
    74    30    72   1
    75    30    73   1
    76    33    74   1
    77    33    75   1
    78    35    76   1
    79    36    77   1
    80    37    78   1
    81    38    79   1
    82    45    80   1
    83    46    81   1
    84    49    82   1
    85    49    83   1
    86    52    84   1
    87    52    85   1
@<TRIPOS>SUBSTRUCTURE
     1  MOL      1

