@<TRIPOS>MOLECULE
1jyq_ligand_012
    85    87
SMALL
GAST_HUCK
****
This file was generated by PARSER (from files_GN.cpp)

@<TRIPOS>ATOM
      1 C1        -30.2420   42.7214   38.3530 C.ar        1 MOL      -0.0801
      2 C2        -31.3556   43.5280   38.0613 C.ar        1 MOL      -0.0711
      3 C3        -31.5535   44.7561   38.7363 C.ar        1 MOL      -0.0250
      4 C4        -30.6152   45.1508   39.7194 C.ar        1 MOL      -0.0414
      5 C6        -29.3184   43.1213   39.3338 C.ar        1 MOL      -0.0516
      6 C12       -32.7113   45.6253   38.4087 C.3         1 MOL       0.1084
      7 O13       -32.3573   46.7196   37.5546 O.3         1 MOL      -0.2508
      8 C16       -31.6752   46.6679   36.3781 C.2         1 MOL       0.3241
      9 O18       -31.2229   45.4858   35.8911 O.2         1 MOL      -0.3773
     10 N11       -28.6402   44.7189   40.9805 N.pl3       1 MOL      -0.3383
     11 C5        -29.5072   44.3346   40.0256 C.ar        1 MOL       0.0282
     12 N         -31.4944   47.8255   35.7057 N.am        1 MOL      -0.2380
     13 CA        -30.7642   47.9744   34.4749 C.3         1 MOL       0.1484
     14 C         -29.6768   48.9357   34.6484 C.2         1 MOL       0.2046
     15 O         -29.3457   49.6684   33.7257 O.2         1 MOL      -0.3944
     16 CB        -31.7685   48.2682   33.2929 C.3         1 MOL       0.0400
     17 CG        -31.6715   47.3031   32.1591 C.ar        1 MOL      -0.0004
     18 CD1       -32.7228   46.3948   31.8899 C.ar        1 MOL      -0.0239
     19 CD2       -30.5421   47.2965   31.3039 C.ar        1 MOL      -0.0239
     20 CE1       -32.6509   45.5103   30.7985 C.ar        1 MOL       0.0115
     21 CE2       -30.4681   46.4109   30.2097 C.ar        1 MOL       0.0115
     22 CZ        -31.5179   45.5010   29.9593 C.ar        1 MOL       0.1728
     23 OH        -31.5161   44.6946   28.8538 O.3         1 MOL      -0.2040
     24 P         -30.8521   43.3045   29.0528 P.3         1 MOL       0.1348
     25 O1P       -31.6304   42.3810   28.2574 O.co2       1 MOL      -0.6653
     26 O2P       -30.8562   42.7828   30.3983 O.co2       1 MOL      -0.6653
     27 O3P       -29.5157   43.2681   28.5046 O.co2       1 MOL      -0.6653
     28 N         -28.9342   48.9043   35.7554 N.am        1 MOL      -0.2712
     29 CA        -27.6819   49.5844   36.0180 C.3         1 MOL       0.1461
     30 CH3       -27.1967   49.1713   37.4512 C.3         1 MOL      -0.0287
     31 C         -27.9707   51.0418   36.0326 C.2         1 MOL       0.2294
     32 O         -27.4953   51.7822   35.1815 O.2         1 MOL      -0.3416
     33 CB        -26.5776   49.1127   34.9678 C.3         1 MOL       0.0325
     34 CG        -26.6634   47.7454   34.3396 C.ar        1 MOL      -0.0034
     35 CD1       -27.3815   46.6575   34.9004 C.ar        1 MOL      -0.0242
     36 CD2       -26.0072   47.5228   33.1005 C.ar        1 MOL      -0.0242
     37 CE1       -27.5179   45.4364   34.2080 C.ar        1 MOL       0.0115
     38 CE2       -26.0994   46.2869   32.4324 C.ar        1 MOL       0.0115
     39 CZ        -26.8618   45.2349   32.9742 C.ar        1 MOL       0.1728
     40 OH        -27.0179   44.0810   32.2533 O.3         1 MOL      -0.2040
     41 P         -26.0078   42.9474   32.5829 P.3         1 MOL       0.1348
     42 O1P       -26.3996   42.1831   33.7419 O.co2       1 MOL      -0.6653
     43 O2P       -24.6434   43.3976   32.7446 O.co2       1 MOL      -0.6653
     44 O3P       -26.0183   42.0341   31.4657 O.co2       1 MOL      -0.6653
     45 N         -28.8459   51.5497   36.8947 N.am        1 MOL      -0.2663
     46 CA        -29.3865   52.8829   36.9329 C.3         1 MOL       0.1112
     47 C         -28.3509   53.9395   36.8373 C.2         1 MOL       0.0626
     48 O         -27.3417   53.9884   37.7345 O.co2       1 MOL      -0.5664
     49 CB        -30.2898   53.0756   38.1877 C.3         1 MOL       0.0720
     50 CG        -29.5780   53.1705   39.4530 C.2         1 MOL       0.1774
     51 OD1       -28.8888   52.2430   39.8541 O.2         1 MOL      -0.3971
     52 ND2       -29.6211   54.2587   40.1947 N.am        1 MOL      -0.3007
     53 OXT       -28.3096   54.7831   35.7831 O.co2       1 MOL      -0.5664
     54 H1        -30.1062   41.8433   37.8483 H           1 MOL       0.0566
     55 H2        -32.0140   43.2217   37.3425 H           1 MOL       0.0448
     56 H3        -30.7391   46.0407   40.2135 H           1 MOL       0.0451
     57 H4        -28.5159   42.5235   39.5422 H           1 MOL       0.0459
     58 H5        -33.1172   46.0379   39.3332 H           1 MOL       0.0774
     59 H6        -33.5158   45.0589   37.9314 H           1 MOL       0.0774
     60 H7        -28.7931   45.5430   41.4660 H           1 MOL       0.1718
     61 H8        -27.8655   44.1790   41.1999 H           1 MOL       0.1718
     62 H9        -31.9080   48.6240   36.0774 H           1 MOL       0.1902
     63 H10       -30.2507   47.0313   34.2629 H           1 MOL       0.0839
     64 H11       -31.6308   49.2726   32.8899 H           1 MOL       0.0584
     65 H12       -32.7921   48.2674   33.6822 H           1 MOL       0.0584
     66 H13       -33.5597   46.3788   32.4779 H           1 MOL       0.0703
     67 H14       -29.7731   47.9522   31.4581 H           1 MOL       0.0703
     68 H15       -33.4309   44.8787   30.6080 H           1 MOL       0.0736
     69 H16       -29.6596   46.4360   29.5869 H           1 MOL       0.0736
     70 H17       -29.2372   48.3004   36.4477 H           1 MOL       0.1842
     71 H18       -26.3333   49.7661   37.7568 H           1 MOL       0.0244
     72 H19       -26.9021   48.1230   37.4919 H           1 MOL       0.0244
     73 H20       -27.9843   49.3108   38.1957 H           1 MOL       0.0244
     74 H21       -25.5773   49.1963   35.4151 H           1 MOL       0.0549
     75 H22       -26.5769   49.8236   34.1438 H           1 MOL       0.0549
     76 H23       -27.8414   46.7434   35.8070 H           1 MOL       0.0703
     77 H24       -25.4592   48.2705   32.6640 H           1 MOL       0.0703
     78 H25       -28.0828   44.6877   34.6106 H           1 MOL       0.0736
     79 H26       -25.6244   46.1678   31.5359 H           1 MOL       0.0736
     80 H27       -29.2060   50.9329   37.5499 H           1 MOL       0.1883
     81 H28       -30.0429   52.9789   36.0684 H           1 MOL       0.0754
     82 H29       -30.9866   52.2368   38.2598 H           1 MOL       0.0544
     83 H30       -30.8983   53.9730   38.0402 H           1 MOL       0.0544
     84 H31       -29.0873   54.3252   41.0060 H           1 MOL       0.1814
     85 H32       -30.1662   55.0154   39.9221 H           1 MOL       0.1814
@<TRIPOS>BOND
     1     1     5  ar
     2     2     1  ar
     3     3     2  ar
     4     6     3   1
     5     3     4  ar
     6     4    11  ar
     7    11    10   1
     8    11     5  ar
     9     7     6   1
    10     8     7   1
    11     8     9   2
    12    13    12   1
    13    13    16   1
    14    14    13   1
    15    14    15   2
    16    16    17   1
    17    17    19  ar
    18    17    18  ar
    19    18    20  ar
    20    20    22  ar
    21    22    23   1
    22    21    22  ar
    23    19    21  ar
    24    23    24   1
    25    24    27  ar
    26    24    26  ar
    27    24    25  ar
    28    29    28   1
    29    29    33   1
    30    31    29   1
    31    29    30   1
    32    31    32   2
    33    33    34   1
    34    34    36  ar
    35    34    35  ar
    36    35    37  ar
    37    37    39  ar
    38    39    40   1
    39    38    39  ar
    40    36    38  ar
    41    40    41   1
    42    41    44  ar
    43    41    43  ar
    44    41    42  ar
    45    46    47   1
    46    46    49   1
    47    45    46   1
    48    49    50   1
    49    50    51   2
    50    50    52  am
    51    47    53  ar
    52    47    48  ar
    53    28    14  am
    54    12     8  am
    55    31    45  am
    56     1    54   1
    57     2    55   1
    58     4    56   1
    59     5    57   1
    60     6    58   1
    61     6    59   1
    62    10    60   1
    63    10    61   1
    64    12    62   1
    65    13    63   1
    66    16    64   1
    67    16    65   1
    68    18    66   1
    69    19    67   1
    70    20    68   1
    71    21    69   1
    72    28    70   1
    73    30    71   1
    74    30    72   1
    75    30    73   1
    76    33    74   1
    77    33    75   1
    78    35    76   1
    79    36    77   1
    80    37    78   1
    81    38    79   1
    82    45    80   1
    83    46    81   1
    84    49    82   1
    85    49    83   1
    86    52    84   1
    87    52    85   1
@<TRIPOS>SUBSTRUCTURE
     1  MOL      1

