@<TRIPOS>MOLECULE
1jyq_ligand_076
    85    87
SMALL
GAST_HUCK
****
This file was generated by PARSER (from files_GN.cpp)

@<TRIPOS>ATOM
      1 C1        -29.4024   44.1085   42.7181 C.ar        1 MOL      -0.0801
      2 C2        -28.9219   44.5386   41.4685 C.ar        1 MOL      -0.0711
      3 C3        -29.0222   43.7059   40.3310 C.ar        1 MOL      -0.0250
      4 C4        -29.6426   42.4400   40.4657 C.ar        1 MOL      -0.0414
      5 C6        -30.0058   42.8444   42.8424 C.ar        1 MOL      -0.0516
      6 C12       -28.4851   44.1500   39.0200 C.3         1 MOL       0.1084
      7 O13       -29.2996   45.2068   38.4989 O.3         1 MOL      -0.2508
      8 C16       -29.2695   45.6808   37.2277 C.2         1 MOL       0.3241
      9 O18       -28.4405   45.1483   36.2982 O.2         1 MOL      -0.3773
     10 N11       -30.7280   40.8057   41.8271 N.pl3       1 MOL      -0.3383
     11 C5        -30.1359   42.0103   41.7165 C.ar        1 MOL       0.0282
     12 N         -30.1134   46.6920   36.9251 N.am        1 MOL      -0.2380
     13 CA        -30.3076   47.2854   35.6284 C.3         1 MOL       0.1484
     14 C         -29.6679   48.5942   35.4932 C.2         1 MOL       0.2046
     15 O         -30.0027   49.3150   34.5586 O.2         1 MOL      -0.3944
     16 CB        -31.8525   47.3495   35.3830 C.3         1 MOL       0.0400
     17 CG        -32.4915   46.0086   35.2726 C.ar        1 MOL      -0.0004
     18 CD1       -32.2207   45.1851   34.1555 C.ar        1 MOL      -0.0239
     19 CD2       -33.3471   45.5132   36.2857 C.ar        1 MOL      -0.0239
     20 CE1       -32.7777   43.8952   34.0616 C.ar        1 MOL       0.0115
     21 CE2       -33.9074   44.2268   36.1860 C.ar        1 MOL       0.0115
     22 CZ        -33.6443   43.4152   35.0634 C.ar        1 MOL       0.1728
     23 OH        -34.1380   42.1390   35.0052 O.3         1 MOL      -0.2040
     24 P         -35.5099   42.0230   34.2771 P.3         1 MOL       0.1348
     25 O1P       -36.5514   42.7766   34.9358 O.co2       1 MOL      -0.6653
     26 O2P       -35.9059   40.6394   34.3064 O.co2       1 MOL      -0.6653
     27 O3P       -35.4374   42.4113   32.8893 O.co2       1 MOL      -0.6653
     28 N         -28.6850   48.9787   36.3041 N.am        1 MOL      -0.2712
     29 CA        -27.9827   50.2439   36.3856 C.3         1 MOL       0.1461
     30 CH3       -26.8840   49.9822   37.4759 C.3         1 MOL      -0.0287
     31 C         -28.8747   51.3218   36.8728 C.2         1 MOL       0.2294
     32 O         -30.0865   51.1315   36.9474 O.2         1 MOL      -0.3416
     33 CB        -27.3290   50.6987   35.0118 C.3         1 MOL       0.0325
     34 CG        -26.8333   49.6220   34.0939 C.ar        1 MOL      -0.0034
     35 CD1       -27.4045   49.4426   32.8046 C.ar        1 MOL      -0.0242
     36 CD2       -25.7536   48.7888   34.4581 C.ar        1 MOL      -0.0242
     37 CE1       -26.9713   48.4072   31.9534 C.ar        1 MOL       0.0115
     38 CE2       -25.3368   47.7388   33.6181 C.ar        1 MOL       0.0115
     39 CZ        -25.9669   47.5110   32.3839 C.ar        1 MOL       0.1728
     40 OH        -25.5293   46.4510   31.6202 O.3         1 MOL      -0.2040
     41 P         -26.5620   45.2914   31.4920 P.3         1 MOL       0.1348
     42 O1P       -27.4362   45.1203   32.6323 O.co2       1 MOL      -0.6653
     43 O2P       -25.8229   44.0593   31.3334 O.co2       1 MOL      -0.6653
     44 O3P       -27.3623   45.4527   30.3019 O.co2       1 MOL      -0.6653
     45 N         -28.3784   52.4929   37.2709 N.am        1 MOL      -0.2663
     46 CA        -29.0964   53.5717   37.8806 C.3         1 MOL       0.1112
     47 C         -28.6463   54.8352   37.2489 C.2         1 MOL       0.0626
     48 O         -28.3597   55.9398   37.9736 O.co2       1 MOL      -0.5664
     49 CB        -28.8570   53.5363   39.4249 C.3         1 MOL       0.0720
     50 CG        -29.0419   52.2637   40.1077 C.2         1 MOL       0.1774
     51 OD1       -29.5520   51.2969   39.5570 O.2         1 MOL      -0.3971
     52 ND2       -28.6863   52.1244   41.3647 N.am        1 MOL      -0.3007
     53 OXT       -28.5440   54.9517   35.9015 O.co2       1 MOL      -0.5664
     54 H1        -29.3119   44.7123   43.5352 H           1 MOL       0.0566
     55 H2        -28.4832   45.4604   41.3956 H           1 MOL       0.0448
     56 H3        -29.7408   41.8270   39.6504 H           1 MOL       0.0451
     57 H4        -30.3515   42.5366   43.7544 H           1 MOL       0.0459
     58 H5        -28.4777   43.3216   38.3071 H           1 MOL       0.0774
     59 H6        -27.4573   44.4995   39.1391 H           1 MOL       0.0774
     60 H7        -30.8250   40.2364   41.0476 H           1 MOL       0.1718
     61 H8        -31.0652   40.5094   42.6869 H           1 MOL       0.1718
     62 H9        -30.6546   47.0309   37.6548 H           1 MOL       0.1902
     63 H10       -29.8734   46.6423   34.8542 H           1 MOL       0.0839
     64 H11       -32.0659   47.8939   34.4569 H           1 MOL       0.0584
     65 H12       -32.3070   47.9267   36.1973 H           1 MOL       0.0584
     66 H13       -31.6092   45.5152   33.4052 H           1 MOL       0.0703
     67 H14       -33.5548   46.0810   37.1128 H           1 MOL       0.0703
     68 H15       -32.5515   43.3082   33.2542 H           1 MOL       0.0736
     69 H16       -34.5099   43.8772   36.9384 H           1 MOL       0.0736
     70 H17       -28.4426   48.3314   36.9824 H           1 MOL       0.1842
     71 H18       -26.1809   50.8156   37.5470 H           1 MOL       0.0244
     72 H19       -26.3080   49.0811   37.2541 H           1 MOL       0.0244
     73 H20       -27.3434   49.8436   38.4603 H           1 MOL       0.0244
     74 H21       -26.4920   51.3758   35.2093 H           1 MOL       0.0549
     75 H22       -28.0598   51.3019   34.4643 H           1 MOL       0.0549
     76 H23       -28.1526   50.0525   32.4824 H           1 MOL       0.0703
     77 H24       -25.2516   48.9429   35.3353 H           1 MOL       0.0703
     78 H25       -27.4084   48.2870   31.0460 H           1 MOL       0.0736
     79 H26       -24.5738   47.1291   33.9180 H           1 MOL       0.0736
     80 H27       -27.4135   52.5954   37.2106 H           1 MOL       0.1883
     81 H28       -30.1729   53.5054   37.7097 H           1 MOL       0.0754
     82 H29       -29.5393   54.2522   39.8968 H           1 MOL       0.0544
     83 H30       -27.8322   53.8782   39.6203 H           1 MOL       0.0544
     84 H31       -28.8144   51.2776   41.8249 H           1 MOL       0.1814
     85 H32       -28.2833   52.8652   41.8444 H           1 MOL       0.1814
@<TRIPOS>BOND
     1     1     5  ar
     2     2     1  ar
     3     3     2  ar
     4     6     3   1
     5     3     4  ar
     6     4    11  ar
     7    11    10   1
     8    11     5  ar
     9     7     6   1
    10     8     7   1
    11     8     9   2
    12    13    12   1
    13    13    16   1
    14    14    13   1
    15    14    15   2
    16    16    17   1
    17    17    19  ar
    18    17    18  ar
    19    18    20  ar
    20    20    22  ar
    21    22    23   1
    22    21    22  ar
    23    19    21  ar
    24    23    24   1
    25    24    27  ar
    26    24    26  ar
    27    24    25  ar
    28    29    28   1
    29    29    33   1
    30    31    29   1
    31    29    30   1
    32    31    32   2
    33    33    34   1
    34    34    36  ar
    35    34    35  ar
    36    35    37  ar
    37    37    39  ar
    38    39    40   1
    39    38    39  ar
    40    36    38  ar
    41    40    41   1
    42    41    44  ar
    43    41    43  ar
    44    41    42  ar
    45    46    47   1
    46    46    49   1
    47    45    46   1
    48    49    50   1
    49    50    51   2
    50    50    52  am
    51    47    53  ar
    52    47    48  ar
    53    28    14  am
    54    12     8  am
    55    31    45  am
    56     1    54   1
    57     2    55   1
    58     4    56   1
    59     5    57   1
    60     6    58   1
    61     6    59   1
    62    10    60   1
    63    10    61   1
    64    12    62   1
    65    13    63   1
    66    16    64   1
    67    16    65   1
    68    18    66   1
    69    19    67   1
    70    20    68   1
    71    21    69   1
    72    28    70   1
    73    30    71   1
    74    30    72   1
    75    30    73   1
    76    33    74   1
    77    33    75   1
    78    35    76   1
    79    36    77   1
    80    37    78   1
    81    38    79   1
    82    45    80   1
    83    46    81   1
    84    49    82   1
    85    49    83   1
    86    52    84   1
    87    52    85   1
@<TRIPOS>SUBSTRUCTURE
     1  MOL      1

