@<TRIPOS>MOLECULE
1jyq_ligand_091
    85    87
SMALL
GAST_HUCK
****
This file was generated by PARSER (from files_GN.cpp)

@<TRIPOS>ATOM
      1 C1        -33.4285   43.8008   40.3298 C.ar        1 MOL      -0.0801
      2 C2        -33.0537   45.0793   39.8811 C.ar        1 MOL      -0.0711
      3 C3        -33.7861   45.7393   38.8653 C.ar        1 MOL      -0.0250
      4 C4        -34.9331   45.0979   38.3370 C.ar        1 MOL      -0.0414
      5 C6        -34.5719   43.1792   39.7989 C.ar        1 MOL      -0.0516
      6 C12       -33.3429   47.0647   38.3600 C.3         1 MOL       0.1084
      7 O13       -31.9261   47.0530   38.1685 O.3         1 MOL      -0.2508
      8 C16       -31.2154   47.0296   37.0132 C.2         1 MOL       0.3241
      9 O18       -31.8007   46.9953   35.7883 O.2         1 MOL      -0.3773
     10 N11       -36.4489   43.2476   38.3277 N.pl3       1 MOL      -0.3383
     11 C5        -35.3346   43.8299   38.8092 C.ar        1 MOL       0.0282
     12 N         -29.8777   46.9404   37.1689 N.am        1 MOL      -0.2380
     13 CA        -28.8856   46.8318   36.1371 C.3         1 MOL       0.1484
     14 C         -28.4745   48.1770   35.7408 C.2         1 MOL       0.2046
     15 O         -29.1302   48.7751   34.8943 O.2         1 MOL      -0.3944
     16 CB        -29.2563   45.8765   34.9524 C.3         1 MOL       0.0400
     17 CG        -30.0358   44.6722   35.3632 C.ar        1 MOL      -0.0004
     18 CD1       -29.6101   43.8410   36.4294 C.ar        1 MOL      -0.0239
     19 CD2       -31.2566   44.3614   34.7185 C.ar        1 MOL      -0.0239
     20 CE1       -30.3765   42.7286   36.8297 C.ar        1 MOL       0.0115
     21 CE2       -32.0148   43.2432   35.1077 C.ar        1 MOL       0.0115
     22 CZ        -31.5755   42.4131   36.1576 C.ar        1 MOL       0.1728
     23 OH        -32.3667   41.3689   36.5526 O.3         1 MOL      -0.2040
     24 P         -32.0130   39.9938   35.9206 P.3         1 MOL       0.1348
     25 O1P       -31.3102   39.1951   36.8964 O.co2       1 MOL      -0.6653
     26 O2P       -31.2605   40.0164   34.6882 O.co2       1 MOL      -0.6653
     27 O3P       -33.2593   39.3145   35.6529 O.co2       1 MOL      -0.6653
     28 N         -27.6346   48.8413   36.5309 N.am        1 MOL      -0.2712
     29 CA        -27.2716   50.2545   36.5638 C.3         1 MOL       0.1461
     30 CH3       -26.2623   50.3379   37.7647 C.3         1 MOL      -0.0287
     31 C         -28.4143   51.1447   36.8689 C.2         1 MOL       0.2294
     32 O         -29.5570   50.6987   36.8680 O.2         1 MOL      -0.3416
     33 CB        -26.5046   50.7066   35.2590 C.3         1 MOL       0.0325
     34 CG        -27.2467   50.5741   33.9729 C.ar        1 MOL      -0.0034
     35 CD1       -28.5052   51.2018   33.7947 C.ar        1 MOL      -0.0242
     36 CD2       -26.7424   49.7677   32.9217 C.ar        1 MOL      -0.0242
     37 CE1       -29.2881   50.9320   32.6555 C.ar        1 MOL       0.0115
     38 CE2       -27.5195   49.5027   31.7814 C.ar        1 MOL       0.0115
     39 CZ        -28.8203   50.0394   31.6692 C.ar        1 MOL       0.1728
     40 OH        -29.6516   49.7142   30.6320 O.3         1 MOL      -0.2040
     41 P         -30.4577   48.4050   30.8686 P.3         1 MOL       0.1348
     42 O1P       -31.5852   48.4287   29.9624 O.co2       1 MOL      -0.6653
     43 O2P       -31.0067   48.2259   32.1954 O.co2       1 MOL      -0.6653
     44 O3P       -29.6833   47.2403   30.5015 O.co2       1 MOL      -0.6653
     45 N         -28.2346   52.4240   37.1983 N.am        1 MOL      -0.2663
     46 CA        -29.2621   53.3995   37.4861 C.3         1 MOL       0.1112
     47 C         -28.7118   54.7203   37.0893 C.2         1 MOL       0.0626
     48 O         -28.3732   54.9623   35.8040 O.co2       1 MOL      -0.5664
     49 CB        -29.8500   53.3617   38.9492 C.3         1 MOL       0.0720
     50 CG        -29.5081   52.2232   39.7885 C.2         1 MOL       0.1774
     51 OD1       -29.9125   51.1027   39.5097 O.2         1 MOL      -0.3971
     52 ND2       -28.8382   52.3583   40.9155 N.am        1 MOL      -0.3007
     53 OXT       -28.2979   55.6423   37.9825 O.co2       1 MOL      -0.5664
     54 H1        -32.8738   43.3303   41.0487 H           1 MOL       0.0566
     55 H2        -32.2203   45.5149   40.2866 H           1 MOL       0.0448
     56 H3        -35.4862   45.5602   37.6083 H           1 MOL       0.0451
     57 H4        -34.8470   42.2571   40.1459 H           1 MOL       0.0459
     58 H5        -33.5866   47.8227   39.1104 H           1 MOL       0.0774
     59 H6        -33.8609   47.3382   37.4361 H           1 MOL       0.0774
     60 H7        -36.9823   43.6982   37.6540 H           1 MOL       0.1718
     61 H8        -36.7321   42.3827   38.6669 H           1 MOL       0.1718
     62 H9        -29.5285   46.9533   38.0752 H           1 MOL       0.1902
     63 H10       -28.0236   46.3525   36.6292 H           1 MOL       0.0839
     64 H11       -28.3361   45.5323   34.4742 H           1 MOL       0.0584
     65 H12       -29.8038   46.4312   34.1832 H           1 MOL       0.0584
     66 H13       -28.7398   44.0437   36.9313 H           1 MOL       0.0703
     67 H14       -31.6077   44.9506   33.9633 H           1 MOL       0.0703
     68 H15       -30.0738   42.1536   37.6210 H           1 MOL       0.0736
     69 H16       -32.9018   43.0465   34.6379 H           1 MOL       0.0736
     70 H17       -27.2651   48.3108   37.2592 H           1 MOL       0.1842
     71 H18       -25.8212   51.3361   37.8493 H           1 MOL       0.0244
     72 H19       -25.4394   49.6252   37.6356 H           1 MOL       0.0244
     73 H20       -26.7640   50.1060   38.7098 H           1 MOL       0.0244
     74 H21       -25.5852   50.1175   35.1877 H           1 MOL       0.0549
     75 H22       -26.1851   51.7505   35.3545 H           1 MOL       0.0549
     76 H23       -28.8819   51.8265   34.5141 H           1 MOL       0.0703
     77 H24       -25.8312   49.3125   33.0064 H           1 MOL       0.0703
     78 H25       -30.2146   51.3548   32.5640 H           1 MOL       0.0736
     79 H26       -27.1644   48.8737   31.0577 H           1 MOL       0.0736
     80 H27       -27.3217   52.7474   37.1856 H           1 MOL       0.1883
     81 H28       -30.0947   53.2365   36.7942 H           1 MOL       0.0754
     82 H29       -30.9412   53.3878   38.8745 H           1 MOL       0.0544
     83 H30       -29.5797   54.2651   39.4985 H           1 MOL       0.0544
     84 H31       -28.6532   51.5768   41.4643 H           1 MOL       0.1814
     85 H32       -28.5532   53.2355   41.2249 H           1 MOL       0.1814
@<TRIPOS>BOND
     1     1     5  ar
     2     2     1  ar
     3     3     2  ar
     4     6     3   1
     5     3     4  ar
     6     4    11  ar
     7    11    10   1
     8    11     5  ar
     9     7     6   1
    10     8     7   1
    11     8     9   2
    12    13    12   1
    13    13    16   1
    14    14    13   1
    15    14    15   2
    16    16    17   1
    17    17    19  ar
    18    17    18  ar
    19    18    20  ar
    20    20    22  ar
    21    22    23   1
    22    21    22  ar
    23    19    21  ar
    24    23    24   1
    25    24    27  ar
    26    24    26  ar
    27    24    25  ar
    28    29    28   1
    29    29    33   1
    30    31    29   1
    31    29    30   1
    32    31    32   2
    33    33    34   1
    34    34    36  ar
    35    34    35  ar
    36    35    37  ar
    37    37    39  ar
    38    39    40   1
    39    38    39  ar
    40    36    38  ar
    41    40    41   1
    42    41    44  ar
    43    41    43  ar
    44    41    42  ar
    45    46    47   1
    46    46    49   1
    47    45    46   1
    48    49    50   1
    49    50    51   2
    50    50    52  am
    51    47    53  ar
    52    47    48  ar
    53    28    14  am
    54    12     8  am
    55    31    45  am
    56     1    54   1
    57     2    55   1
    58     4    56   1
    59     5    57   1
    60     6    58   1
    61     6    59   1
    62    10    60   1
    63    10    61   1
    64    12    62   1
    65    13    63   1
    66    16    64   1
    67    16    65   1
    68    18    66   1
    69    19    67   1
    70    20    68   1
    71    21    69   1
    72    28    70   1
    73    30    71   1
    74    30    72   1
    75    30    73   1
    76    33    74   1
    77    33    75   1
    78    35    76   1
    79    36    77   1
    80    37    78   1
    81    38    79   1
    82    45    80   1
    83    46    81   1
    84    49    82   1
    85    49    83   1
    86    52    84   1
    87    52    85   1
@<TRIPOS>SUBSTRUCTURE
     1  MOL      1

