@<TRIPOS>MOLECULE
1jyq_ligand_010
    85    87
SMALL
GAST_HUCK
****
This file was generated by PARSER (from files_GN.cpp)

@<TRIPOS>ATOM
      1 C1        -27.1117   46.8486   29.6792 C.ar        1 MOL      -0.0801
      2 C2        -28.1194   45.9208   30.0012 C.ar        1 MOL      -0.0711
      3 C3        -28.2067   45.3773   31.3052 C.ar        1 MOL      -0.0250
      4 C4        -27.2616   45.7827   32.2762 C.ar        1 MOL      -0.0414
      5 C6        -26.1781   47.2427   30.6521 C.ar        1 MOL      -0.0516
      6 C12       -29.2748   44.4027   31.6264 C.3         1 MOL       0.1084
      7 O13       -29.0843   43.2179   30.8452 O.3         1 MOL      -0.2508
      8 C16       -29.9009   42.1344   30.8174 C.2         1 MOL       0.3241
      9 O18       -31.0309   42.1019   31.5607 O.2         1 MOL      -0.3773
     10 N11       -25.3469   47.0706   32.8836 N.pl3       1 MOL      -0.3383
     11 C5        -26.2476   46.7081   31.9541 C.ar        1 MOL       0.0282
     12 N         -29.5594   41.1402   29.9703 N.am        1 MOL      -0.2380
     13 CA        -30.3295   39.9651   29.6779 C.3         1 MOL       0.1484
     14 C         -29.5523   38.7257   29.7822 C.2         1 MOL       0.2046
     15 O         -30.1813   37.6661   29.6761 O.2         1 MOL      -0.3944
     16 CB        -31.0818   40.1332   28.3163 C.3         1 MOL       0.0400
     17 CG        -30.2612   40.5822   27.1535 C.ar        1 MOL      -0.0004
     18 CD1       -29.9124   41.9452   27.0023 C.ar        1 MOL      -0.0239
     19 CD2       -29.8992   39.6824   26.1252 C.ar        1 MOL      -0.0239
     20 CE1       -29.2053   42.3900   25.8684 C.ar        1 MOL       0.0115
     21 CE2       -29.1895   40.1252   24.9931 C.ar        1 MOL       0.0115
     22 CZ        -28.8162   41.4787   24.8658 C.ar        1 MOL       0.1728
     23 OH        -28.2139   41.9184   23.7201 O.3         1 MOL      -0.2040
     24 P         -26.6691   42.0783   23.8212 P.3         1 MOL       0.1348
     25 O1P       -26.2197   42.5867   22.5455 O.co2       1 MOL      -0.6653
     26 O2P       -25.9859   40.8246   24.0384 O.co2       1 MOL      -0.6653
     27 O3P       -26.2795   43.0505   24.8089 O.co2       1 MOL      -0.6653
     28 N         -28.2439   38.6971   30.0277 N.am        1 MOL      -0.2712
     29 CA        -27.3930   37.5969   30.4686 C.3         1 MOL       0.1461
     30 CH3       -27.9044   37.1880   31.8928 C.3         1 MOL      -0.0287
     31 C         -26.0180   38.1518   30.5073 C.2         1 MOL       0.2294
     32 O         -25.5475   38.5653   29.4553 O.2         1 MOL      -0.3416
     33 CB        -27.4194   36.3058   29.5514 C.3         1 MOL       0.0325
     34 CG        -26.8302   36.3931   28.1793 C.ar        1 MOL      -0.0034
     35 CD1       -27.3106   37.3324   27.2403 C.ar        1 MOL      -0.0242
     36 CD2       -25.7568   35.5476   27.7918 C.ar        1 MOL      -0.0242
     37 CE1       -26.6976   37.4733   25.9810 C.ar        1 MOL       0.0115
     38 CE2       -25.1553   35.6728   26.5263 C.ar        1 MOL       0.0115
     39 CZ        -25.5978   36.6664   25.6301 C.ar        1 MOL       0.1728
     40 OH        -25.0447   36.7973   24.3853 O.3         1 MOL      -0.2040
     41 P         -23.8347   37.7805   24.3064 P.3         1 MOL       0.1348
     42 O1P       -22.5644   37.0824   24.2865 O.co2       1 MOL      -0.6653
     43 O2P       -23.8018   38.8450   25.2801 O.co2       1 MOL      -0.6653
     44 O3P       -23.9382   38.4252   23.0151 O.co2       1 MOL      -0.6653
     45 N         -25.2590   38.2342   31.6000 N.am        1 MOL      -0.2663
     46 CA        -23.8671   38.6125   31.6566 C.3         1 MOL       0.1112
     47 C         -23.3996   38.3777   33.0452 C.2         1 MOL       0.0626
     48 O         -22.4877   37.4139   33.3180 O.co2       1 MOL      -0.5664
     49 CB        -23.5638   40.0818   31.1880 C.3         1 MOL       0.0720
     50 CG        -22.8302   40.1595   29.9293 C.2         1 MOL       0.1774
     51 OD1       -23.4160   40.2324   28.8581 O.2         1 MOL      -0.3971
     52 ND2       -21.5161   40.1584   29.8942 N.am        1 MOL      -0.3007
     53 OXT       -23.9351   39.0499   34.0913 O.co2       1 MOL      -0.5664
     54 H1        -27.0590   47.2346   28.7326 H           1 MOL       0.0566
     55 H2        -28.7920   45.6462   29.2814 H           1 MOL       0.0448
     56 H3        -27.3070   45.4013   33.2266 H           1 MOL       0.0451
     57 H4        -25.4458   47.9129   30.4064 H           1 MOL       0.0459
     58 H5        -30.2463   44.8476   31.3933 H           1 MOL       0.0774
     59 H6        -29.2691   44.1290   32.6846 H           1 MOL       0.0774
     60 H7        -25.3797   46.6763   33.7707 H           1 MOL       0.1718
     61 H8        -24.6464   47.7039   32.6630 H           1 MOL       0.1718
     62 H9        -28.7523   41.2714   29.4545 H           1 MOL       0.1902
     63 H10       -31.1115   39.8592   30.4402 H           1 MOL       0.0839
     64 H11       -31.8781   40.8635   28.4628 H           1 MOL       0.0584
     65 H12       -31.5951   39.1962   28.0724 H           1 MOL       0.0584
     66 H13       -30.1944   42.6376   27.7033 H           1 MOL       0.0703
     67 H14       -30.1626   38.6954   26.1866 H           1 MOL       0.0703
     68 H15       -28.9867   43.3834   25.7676 H           1 MOL       0.0736
     69 H16       -28.9576   39.4630   24.2501 H           1 MOL       0.0736
     70 H17       -27.8063   39.5679   30.0130 H           1 MOL       0.1842
     71 H18       -27.2563   36.4290   32.3347 H           1 MOL       0.0244
     72 H19       -28.9139   36.7784   31.8482 H           1 MOL       0.0244
     73 H20       -27.9204   38.0531   32.5595 H           1 MOL       0.0244
     74 H21       -28.4499   35.9566   29.4288 H           1 MOL       0.0549
     75 H22       -26.9099   35.5090   30.0978 H           1 MOL       0.0549
     76 H23       -28.0976   37.9343   27.4713 H           1 MOL       0.0703
     77 H24       -25.4100   34.8345   28.4325 H           1 MOL       0.0703
     78 H25       -27.0443   38.1707   25.3271 H           1 MOL       0.0736
     79 H26       -24.3869   35.0496   26.2626 H           1 MOL       0.0736
     80 H27       -25.6627   37.9448   32.4344 H           1 MOL       0.1883
     81 H28       -23.3225   37.9101   31.0189 H           1 MOL       0.0754
     82 H29       -22.9864   40.6274   31.9385 H           1 MOL       0.0544
     83 H30       -24.5019   40.6298   31.0880 H           1 MOL       0.0544
     84 H31       -21.0512   40.2220   29.0424 H           1 MOL       0.1814
     85 H32       -21.0042   40.1062   30.7140 H           1 MOL       0.1814
@<TRIPOS>BOND
     1     1     5  ar
     2     2     1  ar
     3     3     2  ar
     4     6     3   1
     5     3     4  ar
     6     4    11  ar
     7    11    10   1
     8    11     5  ar
     9     7     6   1
    10     8     7   1
    11     8     9   2
    12    13    12   1
    13    13    16   1
    14    14    13   1
    15    14    15   2
    16    16    17   1
    17    17    19  ar
    18    17    18  ar
    19    18    20  ar
    20    20    22  ar
    21    22    23   1
    22    21    22  ar
    23    19    21  ar
    24    23    24   1
    25    24    27  ar
    26    24    26  ar
    27    24    25  ar
    28    29    28   1
    29    29    33   1
    30    31    29   1
    31    29    30   1
    32    31    32   2
    33    33    34   1
    34    34    36  ar
    35    34    35  ar
    36    35    37  ar
    37    37    39  ar
    38    39    40   1
    39    38    39  ar
    40    36    38  ar
    41    40    41   1
    42    41    44  ar
    43    41    43  ar
    44    41    42  ar
    45    46    47   1
    46    46    49   1
    47    45    46   1
    48    49    50   1
    49    50    51   2
    50    50    52  am
    51    47    53  ar
    52    47    48  ar
    53    28    14  am
    54    12     8  am
    55    31    45  am
    56     1    54   1
    57     2    55   1
    58     4    56   1
    59     5    57   1
    60     6    58   1
    61     6    59   1
    62    10    60   1
    63    10    61   1
    64    12    62   1
    65    13    63   1
    66    16    64   1
    67    16    65   1
    68    18    66   1
    69    19    67   1
    70    20    68   1
    71    21    69   1
    72    28    70   1
    73    30    71   1
    74    30    72   1
    75    30    73   1
    76    33    74   1
    77    33    75   1
    78    35    76   1
    79    36    77   1
    80    37    78   1
    81    38    79   1
    82    45    80   1
    83    46    81   1
    84    49    82   1
    85    49    83   1
    86    52    84   1
    87    52    85   1
@<TRIPOS>SUBSTRUCTURE
     1  MOL      1

