@<TRIPOS>MOLECULE
1jyq_ligand_003
    85    87
SMALL
GAST_HUCK
****
This file was generated by PARSER (from files_GN.cpp)

@<TRIPOS>ATOM
      1 C1        -28.9675   46.2494   32.3957 C.ar        1 MOL      -0.0801
      2 C2        -29.6026   45.5815   31.3323 C.ar        1 MOL      -0.0711
      3 C3        -28.9217   44.5900   30.5884 C.ar        1 MOL      -0.0250
      4 C4        -27.5875   44.2758   30.9480 C.ar        1 MOL      -0.0414
      5 C6        -27.6472   45.9194   32.7476 C.ar        1 MOL      -0.0516
      6 C12       -29.6366   43.8956   29.4856 C.3         1 MOL       0.1084
      7 O13       -28.9948   42.6797   29.0867 O.3         1 MOL      -0.2508
      8 C16       -29.3955   41.3951   29.2645 C.2         1 MOL       0.3241
      9 O18       -30.5862   41.1015   29.8393 O.2         1 MOL      -0.3773
     10 N11       -25.7053   44.5843   32.3861 N.pl3       1 MOL      -0.3383
     11 C5        -26.9558   44.9257   32.0284 C.ar        1 MOL       0.0282
     12 N         -28.5351   40.4420   28.8517 N.am        1 MOL      -0.2380
     13 CA        -28.7324   39.0191   28.8667 C.3         1 MOL       0.1484
     14 C         -27.9160   38.4507   29.9366 C.2         1 MOL       0.2046
     15 O         -26.9100   37.8010   29.6818 O.2         1 MOL      -0.3944
     16 CB        -28.5295   38.4301   27.4235 C.3         1 MOL       0.0400
     17 CG        -27.4579   39.0706   26.6012 C.ar        1 MOL      -0.0004
     18 CD1       -26.0958   38.7245   26.7700 C.ar        1 MOL      -0.0239
     19 CD2       -27.7814   40.0778   25.6599 C.ar        1 MOL      -0.0239
     20 CE1       -25.0878   39.3864   26.0439 C.ar        1 MOL       0.0115
     21 CE2       -26.7741   40.7427   24.9385 C.ar        1 MOL       0.0115
     22 CZ        -25.4170   40.4252   25.1502 C.ar        1 MOL       0.1728
     23 OH        -24.4429   41.0789   24.4415 O.3         1 MOL      -0.2040
     24 P         -24.1700   42.5330   24.9320 P.3         1 MOL       0.1348
     25 O1P       -23.6627   43.2788   23.8087 O.co2       1 MOL      -0.6653
     26 O2P       -23.1761   42.5994   25.9737 O.co2       1 MOL      -0.6653
     27 O3P       -25.3663   43.1985   25.3823 O.co2       1 MOL      -0.6653
     28 N         -28.3545   38.5578   31.1915 N.am        1 MOL      -0.2712
     29 CA        -27.8416   37.9543   32.4061 C.3         1 MOL       0.1461
     30 CH3       -28.1331   38.9783   33.5562 C.3         1 MOL      -0.0287
     31 C         -26.3770   37.7673   32.3571 C.2         1 MOL       0.2294
     32 O         -25.8784   36.6869   32.6449 O.2         1 MOL      -0.3416
     33 CB        -28.6686   36.6481   32.7411 C.3         1 MOL       0.0325
     34 CG        -28.6159   35.5295   31.7527 C.ar        1 MOL      -0.0034
     35 CD1       -27.6337   34.5145   31.8353 C.ar        1 MOL      -0.0242
     36 CD2       -29.5900   35.4365   30.7290 C.ar        1 MOL      -0.0242
     37 CE1       -27.6121   33.4546   30.9098 C.ar        1 MOL       0.0115
     38 CE2       -29.5660   34.3818   29.7999 C.ar        1 MOL       0.0115
     39 CZ        -28.5903   33.3687   29.8972 C.ar        1 MOL       0.1728
     40 OH        -28.5299   32.3707   28.9603 O.3         1 MOL      -0.2040
     41 P         -29.3440   31.0937   29.3281 P.3         1 MOL       0.1348
     42 O1P       -30.7590   31.3460   29.4286 O.co2       1 MOL      -0.6653
     43 O2P       -28.8724   30.4626   30.5345 O.co2       1 MOL      -0.6653
     44 O3P       -29.1643   30.1426   28.2616 O.co2       1 MOL      -0.6653
     45 N         -25.5852   38.7766   31.9978 N.am        1 MOL      -0.2663
     46 CA        -24.1500   38.7608   31.8617 C.3         1 MOL       0.1112
     47 C         -23.4838   38.4639   33.1551 C.2         1 MOL       0.0626
     48 O         -22.5489   37.4902   33.2488 O.co2       1 MOL      -0.5664
     49 CB        -23.6222   40.1137   31.2631 C.3         1 MOL       0.0720
     50 CG        -22.9574   39.9501   29.9816 C.2         1 MOL       0.1774
     51 OD1       -23.6174   39.8634   28.9573 O.2         1 MOL      -0.3971
     52 ND2       -21.6524   39.8141   29.8920 N.am        1 MOL      -0.3007
     53 OXT       -23.9620   38.9987   34.2990 O.co2       1 MOL      -0.5664
     54 H1        -29.4696   46.9730   32.9161 H           1 MOL       0.0566
     55 H2        -30.5670   45.8304   31.0997 H           1 MOL       0.0448
     56 H3        -27.0743   43.5517   30.4380 H           1 MOL       0.0451
     57 H4        -27.1969   46.4046   33.5273 H           1 MOL       0.0459
     58 H5        -29.6484   44.5396   28.6034 H           1 MOL       0.0774
     59 H6        -30.6709   43.7206   29.7926 H           1 MOL       0.0774
     60 H7        -25.2336   43.8889   31.9003 H           1 MOL       0.1718
     61 H8        -25.2972   44.9845   33.1707 H           1 MOL       0.1718
     62 H9        -27.6857   40.7563   28.5008 H           1 MOL       0.1902
     63 H10       -29.7672   38.7867   29.1420 H           1 MOL       0.0839
     64 H11       -29.4861   38.5281   26.9001 H           1 MOL       0.0584
     65 H12       -28.3396   37.3548   27.4682 H           1 MOL       0.0584
     66 H13       -25.8243   37.9922   27.4258 H           1 MOL       0.0703
     67 H14       -28.7564   40.3465   25.5048 H           1 MOL       0.0703
     68 H15       -24.1092   39.1240   26.1792 H           1 MOL       0.0736
     69 H16       -27.0303   41.4730   24.2696 H           1 MOL       0.0736
     70 H17       -29.1673   39.0773   31.2991 H           1 MOL       0.1842
     71 H18       -27.8114   38.5778   34.5210 H           1 MOL       0.0244
     72 H19       -29.2015   39.1986   33.6248 H           1 MOL       0.0244
     73 H20       -27.6175   39.9274   33.3910 H           1 MOL       0.0244
     74 H21       -29.7233   36.9120   32.8691 H           1 MOL       0.0549
     75 H22       -28.3533   36.2711   33.7197 H           1 MOL       0.0549
     76 H23       -26.9265   34.5368   32.5729 H           1 MOL       0.0703
     77 H24       -30.3212   36.1463   30.6469 H           1 MOL       0.0703
     78 H25       -26.8852   32.7389   30.9767 H           1 MOL       0.0736
     79 H26       -30.2669   34.3469   29.0563 H           1 MOL       0.0736
     80 H27       -26.0308   39.6095   31.7757 H           1 MOL       0.1883
     81 H28       -23.9094   37.9467   31.1714 H           1 MOL       0.0754
     82 H29       -22.9283   40.6077   31.9514 H           1 MOL       0.0544
     83 H30       -24.4443   40.8218   31.1269 H           1 MOL       0.0544
     84 H31       -21.2363   39.6711   29.0266 H           1 MOL       0.1814
     85 H32       -21.1012   39.8411   30.6905 H           1 MOL       0.1814
@<TRIPOS>BOND
     1     1     5  ar
     2     2     1  ar
     3     3     2  ar
     4     6     3   1
     5     3     4  ar
     6     4    11  ar
     7    11    10   1
     8    11     5  ar
     9     7     6   1
    10     8     7   1
    11     8     9   2
    12    13    12   1
    13    13    16   1
    14    14    13   1
    15    14    15   2
    16    16    17   1
    17    17    19  ar
    18    17    18  ar
    19    18    20  ar
    20    20    22  ar
    21    22    23   1
    22    21    22  ar
    23    19    21  ar
    24    23    24   1
    25    24    27  ar
    26    24    26  ar
    27    24    25  ar
    28    29    28   1
    29    29    33   1
    30    31    29   1
    31    29    30   1
    32    31    32   2
    33    33    34   1
    34    34    36  ar
    35    34    35  ar
    36    35    37  ar
    37    37    39  ar
    38    39    40   1
    39    38    39  ar
    40    36    38  ar
    41    40    41   1
    42    41    44  ar
    43    41    43  ar
    44    41    42  ar
    45    46    47   1
    46    46    49   1
    47    45    46   1
    48    49    50   1
    49    50    51   2
    50    50    52  am
    51    47    53  ar
    52    47    48  ar
    53    28    14  am
    54    12     8  am
    55    31    45  am
    56     1    54   1
    57     2    55   1
    58     4    56   1
    59     5    57   1
    60     6    58   1
    61     6    59   1
    62    10    60   1
    63    10    61   1
    64    12    62   1
    65    13    63   1
    66    16    64   1
    67    16    65   1
    68    18    66   1
    69    19    67   1
    70    20    68   1
    71    21    69   1
    72    28    70   1
    73    30    71   1
    74    30    72   1
    75    30    73   1
    76    33    74   1
    77    33    75   1
    78    35    76   1
    79    36    77   1
    80    37    78   1
    81    38    79   1
    82    45    80   1
    83    46    81   1
    84    49    82   1
    85    49    83   1
    86    52    84   1
    87    52    85   1
@<TRIPOS>SUBSTRUCTURE
     1  MOL      1

