@<TRIPOS>MOLECULE
1jyq_ligand_071
    85    87
SMALL
GAST_HUCK
****
This file was generated by PARSER (from files_GN.cpp)

@<TRIPOS>ATOM
      1 C1        -35.6332   42.3846   29.2050 C.ar        1 MOL      -0.0801
      2 C2        -35.1455   41.0870   29.4428 C.ar        1 MOL      -0.0711
      3 C3        -34.3538   40.8102   30.5830 C.ar        1 MOL      -0.0250
      4 C4        -34.0704   41.8651   31.4846 C.ar        1 MOL      -0.0414
      5 C6        -35.3344   43.4243   30.1036 C.ar        1 MOL      -0.0516
      6 C12       -33.8178   39.4436   30.7975 C.3         1 MOL       0.1084
      7 O13       -32.8930   39.0789   29.7563 O.3         1 MOL      -0.2508
      8 C16       -31.6561   39.5946   29.5320 C.2         1 MOL       0.3241
      9 O18       -31.1559   40.5420   30.3569 O.2         1 MOL      -0.3773
     10 N11       -34.2630   44.1625   32.1040 N.pl3       1 MOL      -0.3383
     11 C5        -34.5545   43.1658   31.2467 C.ar        1 MOL       0.0282
     12 N         -30.9840   39.1123   28.4677 N.am        1 MOL      -0.2380
     13 CA        -29.6717   39.4403   27.9695 C.3         1 MOL       0.1484
     14 C         -28.6148   38.6323   28.5839 C.2         1 MOL       0.2046
     15 O         -27.8616   38.0103   27.8472 O.2         1 MOL      -0.3944
     16 CB        -29.3750   40.9715   27.8278 C.3         1 MOL       0.0400
     17 CG        -28.9132   41.7295   29.0315 C.ar        1 MOL      -0.0004
     18 CD1       -27.6476   41.4625   29.6026 C.ar        1 MOL      -0.0239
     19 CD2       -29.6814   42.7889   29.5672 C.ar        1 MOL      -0.0239
     20 CE1       -27.1979   42.1746   30.7275 C.ar        1 MOL       0.0115
     21 CE2       -29.2298   43.5062   30.6925 C.ar        1 MOL       0.0115
     22 CZ        -28.0007   43.1795   31.2997 C.ar        1 MOL       0.1728
     23 OH        -27.5600   43.9072   32.3735 O.3         1 MOL      -0.2040
     24 P         -28.1364   43.4375   33.7373 P.3         1 MOL       0.1348
     25 O1P       -27.3451   42.4148   34.3885 O.co2       1 MOL      -0.6653
     26 O2P       -29.5161   43.0205   33.6623 O.co2       1 MOL      -0.6653
     27 O3P       -28.1262   44.5853   34.6166 O.co2       1 MOL      -0.6653
     28 N         -28.4816   38.5673   29.9062 N.am        1 MOL      -0.2712
     29 CA        -27.5684   37.8426   30.7821 C.3         1 MOL       0.1461
     30 CH3       -28.1604   38.1628   32.2073 C.3         1 MOL      -0.0287
     31 C         -26.1590   38.3087   30.6795 C.2         1 MOL       0.2294
     32 O         -25.6824   38.5080   29.5661 O.2         1 MOL      -0.3416
     33 CB        -27.6318   36.2686   30.5904 C.3         1 MOL       0.0325
     34 CG        -27.5692   35.7432   29.1985 C.ar        1 MOL      -0.0034
     35 CD1       -28.7396   35.2432   28.5797 C.ar        1 MOL      -0.0242
     36 CD2       -26.3539   35.7261   28.4739 C.ar        1 MOL      -0.0242
     37 CE1       -28.7007   34.7522   27.2665 C.ar        1 MOL       0.0115
     38 CE2       -26.3202   35.2484   27.1502 C.ar        1 MOL       0.0115
     39 CZ        -27.4978   34.7792   26.5339 C.ar        1 MOL       0.1728
     40 OH        -27.4575   34.2672   25.2650 O.3         1 MOL      -0.2040
     41 P         -27.7193   35.3185   24.1432 P.3         1 MOL       0.1348
     42 O1P       -26.6942   36.3300   24.0911 O.co2       1 MOL      -0.6653
     43 O2P       -29.0182   35.9390   24.2545 O.co2       1 MOL      -0.6653
     44 O3P       -27.6947   34.6148   22.8831 O.co2       1 MOL      -0.6653
     45 N         -25.3292   38.3511   31.7248 N.am        1 MOL      -0.2663
     46 CA        -23.9110   38.6032   31.7329 C.3         1 MOL       0.1112
     47 C         -23.4193   38.3188   33.0980 C.2         1 MOL       0.0626
     48 O         -22.5128   37.3370   33.3226 O.co2       1 MOL      -0.5664
     49 CB        -23.5518   40.0626   31.2898 C.3         1 MOL       0.0720
     50 CG        -22.8833   40.1252   30.0042 C.2         1 MOL       0.1774
     51 OD1       -23.5279   40.0607   28.9680 O.2         1 MOL      -0.3971
     52 ND2       -21.5712   40.2055   29.9179 N.am        1 MOL      -0.3007
     53 OXT       -23.8891   38.9963   34.1678 O.co2       1 MOL      -0.5664
     54 H1        -36.2009   42.5724   28.3745 H           1 MOL       0.0566
     55 H2        -35.3674   40.3421   28.7761 H           1 MOL       0.0448
     56 H3        -33.4977   41.6852   32.3150 H           1 MOL       0.0451
     57 H4        -35.6900   44.3656   29.9190 H           1 MOL       0.0459
     58 H5        -34.6479   38.7347   30.7759 H           1 MOL       0.0774
     59 H6        -33.3224   39.3423   31.7664 H           1 MOL       0.0774
     60 H7        -33.7223   43.9845   32.8888 H           1 MOL       0.1718
     61 H8        -34.5921   45.0594   31.9354 H           1 MOL       0.1718
     62 H9        -31.4707   38.4523   27.9473 H           1 MOL       0.1902
     63 H10       -29.7531   39.1064   26.9286 H           1 MOL       0.0839
     64 H11       -30.2755   41.4391   27.4191 H           1 MOL       0.0584
     65 H12       -28.6089   41.1013   27.0569 H           1 MOL       0.0584
     66 H13       -27.0384   40.7425   29.2033 H           1 MOL       0.0703
     67 H14       -30.5835   43.0363   29.1510 H           1 MOL       0.0703
     68 H15       -26.2830   41.9652   31.1315 H           1 MOL       0.0736
     69 H16       -29.8065   44.2616   31.0679 H           1 MOL       0.0736
     70 H17       -29.1306   39.0991   30.3780 H           1 MOL       0.1842
     71 H18       -27.6436   37.5894   32.9879 H           1 MOL       0.0244
     72 H19       -29.2248   37.9047   32.2579 H           1 MOL       0.0244
     73 H20       -28.0603   39.2297   32.4319 H           1 MOL       0.0244
     74 H21       -28.5532   35.8760   31.0317 H           1 MOL       0.0549
     75 H22       -26.8436   35.7900   31.1804 H           1 MOL       0.0549
     76 H23       -29.6256   35.2258   29.0871 H           1 MOL       0.0703
     77 H24       -25.4918   36.0696   28.8946 H           1 MOL       0.0703
     78 H25       -29.5524   34.3774   26.8425 H           1 MOL       0.0736
     79 H26       -25.4347   35.2294   26.6401 H           1 MOL       0.0736
     80 H27       -25.7183   38.1289   32.5853 H           1 MOL       0.1883
     81 H28       -23.4166   37.8833   31.0708 H           1 MOL       0.0754
     82 H29       -22.9060   40.5440   32.0321 H           1 MOL       0.0544
     83 H30       -24.4569   40.6769   31.2522 H           1 MOL       0.0544
     84 H31       -21.1423   40.2362   29.0510 H           1 MOL       0.1814
     85 H32       -21.0323   40.2211   30.7240 H           1 MOL       0.1814
@<TRIPOS>BOND
     1     1     5  ar
     2     2     1  ar
     3     3     2  ar
     4     6     3   1
     5     3     4  ar
     6     4    11  ar
     7    11    10   1
     8    11     5  ar
     9     7     6   1
    10     8     7   1
    11     8     9   2
    12    13    12   1
    13    13    16   1
    14    14    13   1
    15    14    15   2
    16    16    17   1
    17    17    19  ar
    18    17    18  ar
    19    18    20  ar
    20    20    22  ar
    21    22    23   1
    22    21    22  ar
    23    19    21  ar
    24    23    24   1
    25    24    27  ar
    26    24    26  ar
    27    24    25  ar
    28    29    28   1
    29    29    33   1
    30    31    29   1
    31    29    30   1
    32    31    32   2
    33    33    34   1
    34    34    36  ar
    35    34    35  ar
    36    35    37  ar
    37    37    39  ar
    38    39    40   1
    39    38    39  ar
    40    36    38  ar
    41    40    41   1
    42    41    44  ar
    43    41    43  ar
    44    41    42  ar
    45    46    47   1
    46    46    49   1
    47    45    46   1
    48    49    50   1
    49    50    51   2
    50    50    52  am
    51    47    53  ar
    52    47    48  ar
    53    28    14  am
    54    12     8  am
    55    31    45  am
    56     1    54   1
    57     2    55   1
    58     4    56   1
    59     5    57   1
    60     6    58   1
    61     6    59   1
    62    10    60   1
    63    10    61   1
    64    12    62   1
    65    13    63   1
    66    16    64   1
    67    16    65   1
    68    18    66   1
    69    19    67   1
    70    20    68   1
    71    21    69   1
    72    28    70   1
    73    30    71   1
    74    30    72   1
    75    30    73   1
    76    33    74   1
    77    33    75   1
    78    35    76   1
    79    36    77   1
    80    37    78   1
    81    38    79   1
    82    45    80   1
    83    46    81   1
    84    49    82   1
    85    49    83   1
    86    52    84   1
    87    52    85   1
@<TRIPOS>SUBSTRUCTURE
     1  MOL      1

