@<TRIPOS>MOLECULE
1jyq_ligand_072
    85    87
SMALL
GAST_HUCK
****
This file was generated by PARSER (from files_GN.cpp)

@<TRIPOS>ATOM
      1 C1        -30.8129   42.7661   37.8719 C.ar        1 MOL      -0.0801
      2 C2        -30.0132   43.2443   36.8144 C.ar        1 MOL      -0.0711
      3 C3        -28.7078   43.7269   37.0632 C.ar        1 MOL      -0.0250
      4 C4        -28.2161   43.7141   38.3890 C.ar        1 MOL      -0.0414
      5 C6        -30.3138   42.7642   39.1845 C.ar        1 MOL      -0.0516
      6 C12       -27.8855   44.2415   35.9416 C.3         1 MOL       0.1084
      7 O13       -28.5255   45.3930   35.3664 O.3         1 MOL      -0.2508
      8 C16       -28.1462   46.6938   35.4413 C.2         1 MOL       0.3241
      9 O18       -27.0697   47.0700   36.1826 O.2         1 MOL      -0.3773
     10 N11       -28.5376   43.2353   40.7102 N.pl3       1 MOL      -0.3383
     11 C5        -29.0138   43.2359   39.4500 C.ar        1 MOL       0.0282
     12 N         -28.9115   47.5916   34.7836 N.am        1 MOL      -0.2380
     13 CA        -28.7058   49.0086   34.7245 C.3         1 MOL       0.1484
     14 C         -29.8231   49.6342   35.4326 C.2         1 MOL       0.2046
     15 O         -30.6647   50.2998   34.8306 O.2         1 MOL      -0.3944
     16 CB        -28.5585   49.4544   33.2353 C.3         1 MOL       0.0400
     17 CG        -27.5090   48.7289   32.4605 C.ar        1 MOL      -0.0004
     18 CD1       -26.1390   49.0522   32.6055 C.ar        1 MOL      -0.0239
     19 CD2       -27.8725   47.7393   31.5170 C.ar        1 MOL      -0.0239
     20 CE1       -25.1660   48.4286   31.8006 C.ar        1 MOL       0.0115
     21 CE2       -26.8996   47.1117   30.7185 C.ar        1 MOL       0.0115
     22 CZ        -25.5453   47.4792   30.8294 C.ar        1 MOL       0.1728
     23 OH        -24.6092   46.8757   30.0424 O.3         1 MOL      -0.2040
     24 P         -24.3509   47.5721   28.6641 P.3         1 MOL       0.1348
     25 O1P       -22.9800   48.0042   28.5936 O.co2       1 MOL      -0.6653
     26 O2P       -25.1938   48.6955   28.3240 O.co2       1 MOL      -0.6653
     27 O3P       -24.5075   46.5814   27.6304 O.co2       1 MOL      -0.6653
     28 N         -29.9323   49.4708   36.7554 N.am        1 MOL      -0.2712
     29 CA        -30.9544   49.9760   37.6526 C.3         1 MOL       0.1461
     30 CH3       -32.2771   49.1903   37.3205 C.3         1 MOL      -0.0287
     31 C         -31.1280   51.4401   37.4502 C.2         1 MOL       0.2294
     32 O         -32.2127   51.8964   37.0998 O.2         1 MOL      -0.3416
     33 CB        -30.4705   49.7126   39.1493 C.3         1 MOL       0.0325
     34 CG        -31.1128   48.6228   39.9458 C.ar        1 MOL      -0.0034
     35 CD1       -31.0028   47.2668   39.5551 C.ar        1 MOL      -0.0242
     36 CD2       -31.8732   48.9336   41.0999 C.ar        1 MOL      -0.0242
     37 CE1       -31.6407   46.2532   40.2980 C.ar        1 MOL       0.0115
     38 CE2       -32.5107   47.9191   41.8368 C.ar        1 MOL       0.0115
     39 CZ        -32.4451   46.5773   41.4097 C.ar        1 MOL       0.1728
     40 OH        -33.1020   45.5952   42.1040 O.3         1 MOL      -0.2040
     41 P         -34.5760   45.3972   41.6414 P.3         1 MOL       0.1348
     42 O1P       -35.3774   46.5808   41.8092 O.co2       1 MOL      -0.6653
     43 O2P       -35.1677   44.3781   42.4714 O.co2       1 MOL      -0.6653
     44 O3P       -34.6659   44.9445   40.2766 O.co2       1 MOL      -0.6653
     45 N         -30.1135   52.2748   37.6535 N.am        1 MOL      -0.2663
     46 CA        -30.1692   53.7138   37.5777 C.3         1 MOL       0.1112
     47 C         -28.8411   54.2115   37.1647 C.2         1 MOL       0.0626
     48 O         -27.8096   54.1958   38.0381 O.co2       1 MOL      -0.5664
     49 CB        -30.6801   54.4223   38.8908 C.3         1 MOL       0.0720
     50 CG        -31.0901   53.5766   39.9980 C.2         1 MOL       0.1774
     51 OD1       -32.1203   52.9180   39.9201 O.2         1 MOL      -0.3971
     52 ND2       -30.4335   53.5270   41.1375 N.am        1 MOL      -0.3007
     53 OXT       -28.6367   54.7693   35.9442 O.co2       1 MOL      -0.5664
     54 H1        -31.7572   42.4262   37.6809 H           1 MOL       0.0566
     55 H2        -30.3904   43.2367   35.8643 H           1 MOL       0.0448
     56 H3        -27.2748   44.0582   38.5928 H           1 MOL       0.0451
     57 H4        -30.9063   42.4226   39.9474 H           1 MOL       0.0459
     58 H5        -27.7976   43.4760   35.1712 H           1 MOL       0.0774
     59 H6        -26.8739   44.4833   36.2743 H           1 MOL       0.0774
     60 H7        -27.6448   43.5669   40.8971 H           1 MOL       0.1718
     61 H8        -29.0908   42.9057   41.4359 H           1 MOL       0.1718
     62 H9        -29.6772   47.2384   34.2975 H           1 MOL       0.1902
     63 H10       -27.7928   49.3080   35.2419 H           1 MOL       0.0839
     64 H11       -28.3331   50.5254   33.2040 H           1 MOL       0.0584
     65 H12       -29.5271   49.3310   32.7372 H           1 MOL       0.0584
     66 H13       -25.8430   49.7627   33.2812 H           1 MOL       0.0703
     67 H14       -28.8531   47.4745   31.3959 H           1 MOL       0.0703
     68 H15       -24.1809   48.6829   31.9039 H           1 MOL       0.0736
     69 H16       -27.1843   46.4050   30.0371 H           1 MOL       0.0736
     70 H17       -29.2438   48.9244   37.1622 H           1 MOL       0.1842
     71 H18       -33.0554   49.4050   38.0648 H           1 MOL       0.0244
     72 H19       -32.0984   48.1104   37.3100 H           1 MOL       0.0244
     73 H20       -32.6671   49.4668   36.3337 H           1 MOL       0.0244
     74 H21       -30.5666   50.6351   39.7318 H           1 MOL       0.0549
     75 H22       -29.3959   49.5128   39.1634 H           1 MOL       0.0549
     76 H23       -30.4444   47.0122   38.7390 H           1 MOL       0.0703
     77 H24       -31.9729   49.8981   41.4204 H           1 MOL       0.0703
     78 H25       -31.5518   45.2790   39.9990 H           1 MOL       0.0736
     79 H26       -33.0615   48.1614   42.6650 H           1 MOL       0.0736
     80 H27       -29.2673   51.8817   37.9311 H           1 MOL       0.1883
     81 H28       -30.8554   53.9847   36.7662 H           1 MOL       0.0754
     82 H29       -31.5423   55.0484   38.6327 H           1 MOL       0.0544
     83 H30       -29.9210   55.1247   39.2627 H           1 MOL       0.0544
     84 H31       -30.7665   52.9671   41.8582 H           1 MOL       0.1814
     85 H32       -29.6302   54.0582   41.2751 H           1 MOL       0.1814
@<TRIPOS>BOND
     1     1     5  ar
     2     2     1  ar
     3     3     2  ar
     4     6     3   1
     5     3     4  ar
     6     4    11  ar
     7    11    10   1
     8    11     5  ar
     9     7     6   1
    10     8     7   1
    11     8     9   2
    12    13    12   1
    13    13    16   1
    14    14    13   1
    15    14    15   2
    16    16    17   1
    17    17    19  ar
    18    17    18  ar
    19    18    20  ar
    20    20    22  ar
    21    22    23   1
    22    21    22  ar
    23    19    21  ar
    24    23    24   1
    25    24    27  ar
    26    24    26  ar
    27    24    25  ar
    28    29    28   1
    29    29    33   1
    30    31    29   1
    31    29    30   1
    32    31    32   2
    33    33    34   1
    34    34    36  ar
    35    34    35  ar
    36    35    37  ar
    37    37    39  ar
    38    39    40   1
    39    38    39  ar
    40    36    38  ar
    41    40    41   1
    42    41    44  ar
    43    41    43  ar
    44    41    42  ar
    45    46    47   1
    46    46    49   1
    47    45    46   1
    48    49    50   1
    49    50    51   2
    50    50    52  am
    51    47    53  ar
    52    47    48  ar
    53    28    14  am
    54    12     8  am
    55    31    45  am
    56     1    54   1
    57     2    55   1
    58     4    56   1
    59     5    57   1
    60     6    58   1
    61     6    59   1
    62    10    60   1
    63    10    61   1
    64    12    62   1
    65    13    63   1
    66    16    64   1
    67    16    65   1
    68    18    66   1
    69    19    67   1
    70    20    68   1
    71    21    69   1
    72    28    70   1
    73    30    71   1
    74    30    72   1
    75    30    73   1
    76    33    74   1
    77    33    75   1
    78    35    76   1
    79    36    77   1
    80    37    78   1
    81    38    79   1
    82    45    80   1
    83    46    81   1
    84    49    82   1
    85    49    83   1
    86    52    84   1
    87    52    85   1
@<TRIPOS>SUBSTRUCTURE
     1  MOL      1

