@<TRIPOS>MOLECULE
1jyq_ligand_058
    85    87
SMALL
GAST_HUCK
****
This file was generated by PARSER (from files_GN.cpp)

@<TRIPOS>ATOM
      1 C1        -32.7997   50.3167   31.2141 C.ar        1 MOL      -0.0801
      2 C2        -31.6012   51.0316   31.3953 C.ar        1 MOL      -0.0711
      3 C3        -30.3517   50.4116   31.1626 C.ar        1 MOL      -0.0250
      4 C4        -30.3324   49.0584   30.7456 C.ar        1 MOL      -0.0414
      5 C6        -32.7649   48.9700   30.8097 C.ar        1 MOL      -0.0516
      6 C12       -29.0810   51.1682   31.3177 C.3         1 MOL       0.1084
      7 O13       -28.0237   50.3545   31.8491 O.3         1 MOL      -0.2508
      8 C16       -28.0432   49.6159   32.9873 C.2         1 MOL       0.3241
      9 O18       -29.1177   49.6482   33.8102 O.2         1 MOL      -0.3773
     10 N11       -31.4886   47.0415   30.2110 N.pl3       1 MOL      -0.3383
     11 C5        -31.5295   48.3339   30.5821 C.ar        1 MOL       0.0282
     12 N         -26.9726   48.8195   33.2203 N.am        1 MOL      -0.2380
     13 CA        -26.7898   47.8707   34.2865 C.3         1 MOL       0.1484
     14 C         -28.0082   47.1457   34.6438 C.2         1 MOL       0.2046
     15 O         -28.5677   47.3624   35.7097 O.2         1 MOL      -0.3944
     16 CB        -25.9412   48.4372   35.4701 C.3         1 MOL       0.0400
     17 CG        -26.3116   49.7772   36.0060 C.ar        1 MOL      -0.0004
     18 CD1       -26.1904   50.9347   35.1995 C.ar        1 MOL      -0.0239
     19 CD2       -26.6986   49.9411   37.3570 C.ar        1 MOL      -0.0239
     20 CE1       -26.4975   52.2084   35.7116 C.ar        1 MOL       0.0115
     21 CE2       -26.9699   51.2186   37.8809 C.ar        1 MOL       0.0115
     22 CZ        -26.9048   52.3620   37.0519 C.ar        1 MOL       0.1728
     23 OH        -27.1605   53.6310   37.5145 O.3         1 MOL      -0.2040
     24 P         -28.6672   54.0041   37.5488 P.3         1 MOL       0.1348
     25 O1P       -28.7671   55.4264   37.7523 O.co2       1 MOL      -0.6653
     26 O2P       -29.3297   53.3747   38.6659 O.co2       1 MOL      -0.6653
     27 O3P       -29.3895   53.7160   36.3299 O.co2       1 MOL      -0.6653
     28 N         -28.5058   46.2701   33.7733 N.am        1 MOL      -0.2712
     29 CA        -29.7072   45.4671   33.8681 C.3         1 MOL       0.1461
     30 CH3       -30.9111   46.4516   33.6668 C.3         1 MOL      -0.0287
     31 C         -29.7431   44.7221   35.1478 C.2         1 MOL       0.2294
     32 O         -29.1269   43.6691   35.2269 O.2         1 MOL      -0.3416
     33 CB        -29.7325   44.4547   32.6569 C.3         1 MOL       0.0325
     34 CG        -28.5419   43.5661   32.4984 C.ar        1 MOL      -0.0034
     35 CD1       -28.5835   42.2177   32.9264 C.ar        1 MOL      -0.0242
     36 CD2       -27.3413   44.0516   31.9308 C.ar        1 MOL      -0.0242
     37 CE1       -27.4396   41.3990   32.8493 C.ar        1 MOL       0.0115
     38 CE2       -26.2000   43.2338   31.8477 C.ar        1 MOL       0.0115
     39 CZ        -26.2268   41.9096   32.3465 C.ar        1 MOL       0.1728
     40 OH        -25.1339   41.0843   32.2886 O.3         1 MOL      -0.2040
     41 P         -23.9028   41.5024   33.1437 P.3         1 MOL       0.1348
     42 O1P       -24.0044   42.7370   33.8875 O.co2       1 MOL      -0.6653
     43 O2P       -22.7775   41.6332   32.2517 O.co2       1 MOL      -0.6653
     44 O3P       -23.5576   40.4503   34.0607 O.co2       1 MOL      -0.6653
     45 N         -30.4018   45.1726   36.2082 N.am        1 MOL      -0.2663
     46 CA        -30.5836   44.6625   37.5461 C.3         1 MOL       0.1112
     47 C         -30.6675   45.8147   38.4904 C.2         1 MOL       0.0626
     48 O         -30.7337   45.6013   39.8296 O.co2       1 MOL      -0.5664
     49 CB        -29.6756   43.5420   38.1470 C.3         1 MOL       0.0720
     50 CG        -28.3824   43.9653   38.6673 C.2         1 MOL       0.1774
     51 OD1       -27.4295   44.1777   37.9339 O.2         1 MOL      -0.3971
     52 ND2       -28.1815   44.1164   39.9588 N.am        1 MOL      -0.3007
     53 OXT       -30.6516   47.1058   38.0574 O.co2       1 MOL      -0.5664
     54 H1        -33.6987   50.7777   31.3733 H           1 MOL       0.0566
     55 H2        -31.6477   52.0119   31.6838 H           1 MOL       0.0448
     56 H3        -29.4397   48.5901   30.5698 H           1 MOL       0.0451
     57 H4        -33.6419   48.4581   30.6813 H           1 MOL       0.0459
     58 H5        -29.2041   52.0528   31.9487 H           1 MOL       0.0774
     59 H6        -28.7712   51.5055   30.3275 H           1 MOL       0.0774
     60 H7        -30.6348   46.6051   30.0651 H           1 MOL       0.1718
     61 H8        -32.3117   46.5426   30.0917 H           1 MOL       0.1718
     62 H9        -26.2661   48.8590   32.5540 H           1 MOL       0.1902
     63 H10       -26.1359   47.1082   33.8514 H           1 MOL       0.0839
     64 H11       -24.8990   48.4876   35.1477 H           1 MOL       0.0584
     65 H12       -25.9594   47.6962   36.2763 H           1 MOL       0.0584
     66 H13       -25.8650   50.8597   34.2347 H           1 MOL       0.0703
     67 H14       -26.7741   49.1313   37.9773 H           1 MOL       0.0703
     68 H15       -26.4147   53.0287   35.1046 H           1 MOL       0.0736
     69 H16       -27.2300   51.3140   38.8654 H           1 MOL       0.0736
     70 H17       -28.0017   46.1779   32.9522 H           1 MOL       0.1842
     71 H18       -31.8576   45.9098   33.6162 H           1 MOL       0.0244
     72 H19       -30.8023   47.0176   32.7371 H           1 MOL       0.0244
     73 H20       -30.9756   47.1716   34.4842 H           1 MOL       0.0244
     74 H21       -29.8546   45.0076   31.7197 H           1 MOL       0.0549
     75 H22       -30.6307   43.8335   32.7447 H           1 MOL       0.0549
     76 H23       -29.4385   41.8269   33.3300 H           1 MOL       0.0703
     77 H24       -27.2813   45.0074   31.5780 H           1 MOL       0.0703
     78 H25       -27.4867   40.4330   33.1771 H           1 MOL       0.0736
     79 H26       -25.3351   43.6087   31.4464 H           1 MOL       0.0736
     80 H27       -30.8819   45.9988   36.0650 H           1 MOL       0.1883
     81 H28       -31.5953   44.2393   37.5223 H           1 MOL       0.0754
     82 H29       -29.5251   42.7678   37.3991 H           1 MOL       0.0544
     83 H30       -30.2371   43.0667   38.9622 H           1 MOL       0.0544
     84 H31       -27.3013   44.3650   40.2929 H           1 MOL       0.1814
     85 H32       -28.9072   43.9651   40.5879 H           1 MOL       0.1814
@<TRIPOS>BOND
     1     1     5  ar
     2     2     1  ar
     3     3     2  ar
     4     6     3   1
     5     3     4  ar
     6     4    11  ar
     7    11    10   1
     8    11     5  ar
     9     7     6   1
    10     8     7   1
    11     8     9   2
    12    13    12   1
    13    13    16   1
    14    14    13   1
    15    14    15   2
    16    16    17   1
    17    17    19  ar
    18    17    18  ar
    19    18    20  ar
    20    20    22  ar
    21    22    23   1
    22    21    22  ar
    23    19    21  ar
    24    23    24   1
    25    24    27  ar
    26    24    26  ar
    27    24    25  ar
    28    29    28   1
    29    29    33   1
    30    31    29   1
    31    29    30   1
    32    31    32   2
    33    33    34   1
    34    34    36  ar
    35    34    35  ar
    36    35    37  ar
    37    37    39  ar
    38    39    40   1
    39    38    39  ar
    40    36    38  ar
    41    40    41   1
    42    41    44  ar
    43    41    43  ar
    44    41    42  ar
    45    46    47   1
    46    46    49   1
    47    45    46   1
    48    49    50   1
    49    50    51   2
    50    50    52  am
    51    47    53  ar
    52    47    48  ar
    53    28    14  am
    54    12     8  am
    55    31    45  am
    56     1    54   1
    57     2    55   1
    58     4    56   1
    59     5    57   1
    60     6    58   1
    61     6    59   1
    62    10    60   1
    63    10    61   1
    64    12    62   1
    65    13    63   1
    66    16    64   1
    67    16    65   1
    68    18    66   1
    69    19    67   1
    70    20    68   1
    71    21    69   1
    72    28    70   1
    73    30    71   1
    74    30    72   1
    75    30    73   1
    76    33    74   1
    77    33    75   1
    78    35    76   1
    79    36    77   1
    80    37    78   1
    81    38    79   1
    82    45    80   1
    83    46    81   1
    84    49    82   1
    85    49    83   1
    86    52    84   1
    87    52    85   1
@<TRIPOS>SUBSTRUCTURE
     1  MOL      1

