@<TRIPOS>MOLECULE
1jyq_ligand_060
    85    87
SMALL
GAST_HUCK
****
This file was generated by PARSER (from files_GN.cpp)

@<TRIPOS>ATOM
      1 C1        -30.3402   42.3521   42.3927 C.ar        1 MOL      -0.0801
      2 C2        -29.1672   42.7200   41.7092 C.ar        1 MOL      -0.0711
      3 C3        -29.0417   42.4971   40.3185 C.ar        1 MOL      -0.0250
      4 C4        -30.1242   41.9019   39.6252 C.ar        1 MOL      -0.0414
      5 C6        -31.4092   41.7627   41.6916 C.ar        1 MOL      -0.0516
      6 C12       -27.8207   42.8912   39.5735 C.3         1 MOL       0.1084
      7 O13       -28.0652   44.1032   38.8523 O.3         1 MOL      -0.2508
      8 C16       -28.3339   44.2696   37.5304 C.2         1 MOL       0.3241
      9 O18       -28.4617   43.2142   36.6898 O.2         1 MOL      -0.3773
     10 N11       -32.3190   40.9602   39.6330 N.pl3       1 MOL      -0.3383
     11 C5        -31.2997   41.5283   40.3085 C.ar        1 MOL       0.0282
     12 N         -28.5838   45.5352   37.1334 N.am        1 MOL      -0.2380
     13 CA        -29.1255   45.9388   35.8659 C.3         1 MOL       0.1484
     14 C         -28.9880   47.3907   35.7477 C.2         1 MOL       0.2046
     15 O         -29.9142   48.0783   35.3401 O.2         1 MOL      -0.3944
     16 CB        -30.5876   45.3931   35.6860 C.3         1 MOL       0.0400
     17 CG        -31.4909   45.6738   36.8433 C.ar        1 MOL      -0.0004
     18 CD1       -32.2963   46.8358   36.8943 C.ar        1 MOL      -0.0239
     19 CD2       -31.4993   44.8083   37.9622 C.ar        1 MOL      -0.0239
     20 CE1       -33.0230   47.1594   38.0566 C.ar        1 MOL       0.0115
     21 CE2       -32.2124   45.1320   39.1261 C.ar        1 MOL       0.0115
     22 CZ        -32.9401   46.3350   39.2005 C.ar        1 MOL       0.1728
     23 OH        -33.5948   46.6379   40.3606 O.3         1 MOL      -0.2040
     24 P         -32.8027   47.6017   41.2951 P.3         1 MOL       0.1348
     25 O1P       -33.0535   48.9814   40.9500 O.co2       1 MOL      -0.6653
     26 O2P       -31.3856   47.3542   41.3872 O.co2       1 MOL      -0.6653
     27 O3P       -33.3361   47.4152   42.6239 O.co2       1 MOL      -0.6653
     28 N         -27.8289   47.9704   36.0684 N.am        1 MOL      -0.2712
     29 CA        -27.5198   49.3892   36.1179 C.3         1 MOL       0.1461
     30 CH3       -26.0557   49.4986   36.6562 C.3         1 MOL      -0.0287
     31 C         -28.3914   50.1025   37.0860 C.2         1 MOL       0.2294
     32 O         -29.2016   49.4739   37.7614 O.2         1 MOL      -0.3416
     33 CB        -27.6103   50.0219   34.6734 C.3         1 MOL       0.0325
     34 CG        -26.9559   49.2382   33.5751 C.ar        1 MOL      -0.0034
     35 CD1       -25.7254   49.6589   33.0196 C.ar        1 MOL      -0.0242
     36 CD2       -27.5662   48.0765   33.0427 C.ar        1 MOL      -0.0242
     37 CE1       -25.1060   48.9157   31.9976 C.ar        1 MOL       0.0115
     38 CE2       -26.9381   47.3245   32.0327 C.ar        1 MOL       0.0115
     39 CZ        -25.7110   47.7500   31.4881 C.ar        1 MOL       0.1728
     40 OH        -25.0596   47.0173   30.5274 O.3         1 MOL      -0.2040
     41 P         -25.3409   47.5015   29.0700 P.3         1 MOL       0.1348
     42 O1P       -24.1964   47.1421   28.2710 O.co2       1 MOL      -0.6653
     43 O2P       -25.5222   48.9240   28.9400 O.co2       1 MOL      -0.6653
     44 O3P       -26.4757   46.8241   28.4952 O.co2       1 MOL      -0.6653
     45 N         -28.2875   51.4159   37.2846 N.am        1 MOL      -0.2663
     46 CA        -29.0986   52.2051   38.1722 C.3         1 MOL       0.1112
     47 C         -29.1002   53.6011   37.6839 C.2         1 MOL       0.0626
     48 O         -27.9440   54.2798   37.5145 O.co2       1 MOL      -0.5664
     49 CB        -28.6138   52.1113   39.6547 C.3         1 MOL       0.0720
     50 CG        -29.6798   52.2438   40.6346 C.2         1 MOL       0.1774
     51 OD1       -30.1072   51.2602   41.2338 O.2         1 MOL      -0.3971
     52 ND2       -30.2308   53.4105   40.9143 N.am        1 MOL      -0.3007
     53 OXT       -30.2602   54.2535   37.4466 O.co2       1 MOL      -0.5664
     54 H1        -30.4227   42.5232   43.3937 H           1 MOL       0.0566
     55 H2        -28.4042   43.1569   42.2331 H           1 MOL       0.0448
     56 H3        -30.0543   41.7299   38.6202 H           1 MOL       0.0451
     57 H4        -32.2622   41.5017   42.1946 H           1 MOL       0.0459
     58 H5        -27.5226   42.0786   38.9069 H           1 MOL       0.0774
     59 H6        -26.9833   43.0805   40.2481 H           1 MOL       0.0774
     60 H7        -32.2397   40.7949   38.6796 H           1 MOL       0.1718
     61 H8        -33.1287   40.6982   40.1011 H           1 MOL       0.1718
     62 H9        -28.4469   46.2327   37.7961 H           1 MOL       0.1902
     63 H10       -28.5073   45.5155   35.0676 H           1 MOL       0.0839
     64 H11       -30.5397   44.3122   35.5340 H           1 MOL       0.0584
     65 H12       -31.0182   45.8039   34.7694 H           1 MOL       0.0584
     66 H13       -32.3496   47.4662   36.0882 H           1 MOL       0.0703
     67 H14       -30.9665   43.9366   37.9380 H           1 MOL       0.0703
     68 H15       -33.5824   48.0162   38.0835 H           1 MOL       0.0736
     69 H16       -32.1685   44.5051   39.9331 H           1 MOL       0.0736
     70 H17       -27.1182   47.3719   36.3524 H           1 MOL       0.1842
     71 H18       -25.7180   50.5394   36.6725 H           1 MOL       0.0244
     72 H19       -25.3639   48.9297   36.0288 H           1 MOL       0.0244
     73 H20       -25.9853   49.1012   37.6742 H           1 MOL       0.0244
     74 H21       -27.1683   51.0246   34.6948 H           1 MOL       0.0549
     75 H22       -28.6596   50.1787   34.4062 H           1 MOL       0.0549
     76 H23       -25.2605   50.5038   33.3699 H           1 MOL       0.0703
     77 H24       -28.4719   47.7573   33.3892 H           1 MOL       0.0703
     78 H25       -24.2066   49.2323   31.6234 H           1 MOL       0.0736
     79 H26       -27.3822   46.4690   31.6878 H           1 MOL       0.0736
     80 H27       -27.6318   51.8887   36.7501 H           1 MOL       0.1883
     81 H28       -30.1245   51.8295   38.1126 H           1 MOL       0.0754
     82 H29       -27.8593   52.8807   39.8641 H           1 MOL       0.0544
     83 H30       -28.1169   51.1465   39.8183 H           1 MOL       0.0544
     84 H31       -30.9477   53.4642   41.5708 H           1 MOL       0.1814
     85 H32       -29.9122   54.2208   40.4750 H           1 MOL       0.1814
@<TRIPOS>BOND
     1     1     5  ar
     2     2     1  ar
     3     3     2  ar
     4     6     3   1
     5     3     4  ar
     6     4    11  ar
     7    11    10   1
     8    11     5  ar
     9     7     6   1
    10     8     7   1
    11     8     9   2
    12    13    12   1
    13    13    16   1
    14    14    13   1
    15    14    15   2
    16    16    17   1
    17    17    19  ar
    18    17    18  ar
    19    18    20  ar
    20    20    22  ar
    21    22    23   1
    22    21    22  ar
    23    19    21  ar
    24    23    24   1
    25    24    27  ar
    26    24    26  ar
    27    24    25  ar
    28    29    28   1
    29    29    33   1
    30    31    29   1
    31    29    30   1
    32    31    32   2
    33    33    34   1
    34    34    36  ar
    35    34    35  ar
    36    35    37  ar
    37    37    39  ar
    38    39    40   1
    39    38    39  ar
    40    36    38  ar
    41    40    41   1
    42    41    44  ar
    43    41    43  ar
    44    41    42  ar
    45    46    47   1
    46    46    49   1
    47    45    46   1
    48    49    50   1
    49    50    51   2
    50    50    52  am
    51    47    53  ar
    52    47    48  ar
    53    28    14  am
    54    12     8  am
    55    31    45  am
    56     1    54   1
    57     2    55   1
    58     4    56   1
    59     5    57   1
    60     6    58   1
    61     6    59   1
    62    10    60   1
    63    10    61   1
    64    12    62   1
    65    13    63   1
    66    16    64   1
    67    16    65   1
    68    18    66   1
    69    19    67   1
    70    20    68   1
    71    21    69   1
    72    28    70   1
    73    30    71   1
    74    30    72   1
    75    30    73   1
    76    33    74   1
    77    33    75   1
    78    35    76   1
    79    36    77   1
    80    37    78   1
    81    38    79   1
    82    45    80   1
    83    46    81   1
    84    49    82   1
    85    49    83   1
    86    52    84   1
    87    52    85   1
@<TRIPOS>SUBSTRUCTURE
     1  MOL      1

