@<TRIPOS>MOLECULE
1jyq_ligand_028
    85    87
SMALL
GAST_HUCK
****
This file was generated by PARSER (from files_GN.cpp)

@<TRIPOS>ATOM
      1 C1        -33.2099   45.8399   36.1465 C.ar        1 MOL      -0.0801
      2 C2        -32.3760   44.8446   35.6008 C.ar        1 MOL      -0.0711
      3 C3        -31.0623   44.6413   36.1015 C.ar        1 MOL      -0.0250
      4 C4        -30.6080   45.4690   37.1530 C.ar        1 MOL      -0.0414
      5 C6        -32.7448   46.6490   37.1967 C.ar        1 MOL      -0.0516
      6 C12       -30.2053   43.5504   35.5724 C.3         1 MOL       0.1084
      7 O13       -28.9375   44.0588   35.1348 O.3         1 MOL      -0.2508
      8 C16       -28.4344   44.1146   33.8705 C.2         1 MOL       0.3241
      9 O18       -29.1895   43.7316   32.8129 O.2         1 MOL      -0.3773
     10 N11       -30.9954   47.2448   38.7090 N.pl3       1 MOL      -0.3383
     11 C5        -31.4389   46.4695   37.7062 C.ar        1 MOL       0.0282
     12 N         -27.1787   44.5943   33.7432 N.am        1 MOL      -0.2380
     13 CA        -26.3626   44.8187   32.5815 C.3         1 MOL       0.1484
     14 C         -26.3030   46.2603   32.3516 C.2         1 MOL       0.2046
     15 O         -25.2304   46.7701   32.0268 O.2         1 MOL      -0.3944
     16 CB        -26.6669   44.0051   31.2827 C.3         1 MOL       0.0400
     17 CG        -26.6899   42.5099   31.3700 C.ar        1 MOL      -0.0004
     18 CD1       -27.3197   41.7853   30.3282 C.ar        1 MOL      -0.0239
     19 CD2       -26.0777   41.7615   32.4112 C.ar        1 MOL      -0.0239
     20 CE1       -27.3624   40.3783   30.3361 C.ar        1 MOL       0.0115
     21 CE2       -26.1144   40.3568   32.4192 C.ar        1 MOL       0.0115
     22 CZ        -26.7811   39.6527   31.3953 C.ar        1 MOL       0.1728
     23 OH        -26.7576   38.2855   31.3604 O.3         1 MOL      -0.2040
     24 P         -27.6866   37.6035   32.4054 P.3         1 MOL       0.1348
     25 O1P       -29.0898   37.7061   32.0834 O.co2       1 MOL      -0.6653
     26 O2P       -27.4560   38.0521   33.7535 O.co2       1 MOL      -0.6653
     27 O3P       -27.3501   36.2001   32.3845 O.co2       1 MOL      -0.6653
     28 N         -27.3888   47.0080   32.5650 N.am        1 MOL      -0.2712
     29 CA        -27.4632   48.4474   32.7220 C.3         1 MOL       0.1461
     30 CH3       -28.9697   48.8115   32.4997 C.3         1 MOL      -0.0287
     31 C         -26.6502   49.1107   31.6865 C.2         1 MOL       0.2294
     32 O         -25.6317   49.7230   31.9733 O.2         1 MOL      -0.3416
     33 CB        -27.0403   48.7848   34.2114 C.3         1 MOL       0.0325
     34 CG        -27.5402   50.0731   34.7850 C.ar        1 MOL      -0.0034
     35 CD1       -26.7800   51.2625   34.6862 C.ar        1 MOL      -0.0242
     36 CD2       -28.7828   50.1238   35.4598 C.ar        1 MOL      -0.0242
     37 CE1       -27.2742   52.4774   35.1902 C.ar        1 MOL       0.0115
     38 CE2       -29.2744   51.3367   35.9807 C.ar        1 MOL       0.0115
     39 CZ        -28.5142   52.5189   35.8544 C.ar        1 MOL       0.1728
     40 OH        -29.0018   53.7269   36.2589 O.3         1 MOL      -0.2040
     41 P         -28.6282   54.1286   37.7121 P.3         1 MOL       0.1348
     42 O1P       -29.7391   53.9461   38.6180 O.co2       1 MOL      -0.6653
     43 O2P       -28.3890   55.5500   37.6563 O.co2       1 MOL      -0.6653
     44 O3P       -27.4236   53.5360   38.2440 O.co2       1 MOL      -0.6653
     45 N         -26.9463   48.9523   30.4008 N.am        1 MOL      -0.2663
     46 CA        -26.2440   49.4768   29.2584 C.3         1 MOL       0.1112
     47 C         -27.1441   50.3194   28.4355 C.2         1 MOL       0.0626
     48 O         -28.4882   50.3234   28.6054 O.co2       1 MOL      -0.5664
     49 CB        -25.6556   48.2849   28.4466 C.3         1 MOL       0.0720
     50 CG        -24.6084   47.5639   29.1612 C.2         1 MOL       0.1774
     51 OD1       -24.8071   46.4613   29.6516 O.2         1 MOL      -0.3971
     52 ND2       -23.4017   48.0781   29.2797 N.am        1 MOL      -0.3007
     53 OXT       -26.6183   51.2758   27.6346 O.co2       1 MOL      -0.5664
     54 H1        -34.1544   45.9710   35.7793 H           1 MOL       0.0566
     55 H2        -32.7403   44.2581   34.8488 H           1 MOL       0.0448
     56 H3        -29.6683   45.3334   37.5394 H           1 MOL       0.0451
     57 H4        -33.3606   47.3654   37.5947 H           1 MOL       0.0459
     58 H5        -30.7145   43.0089   34.7662 H           1 MOL       0.0774
     59 H6        -30.0314   42.8342   36.3813 H           1 MOL       0.0774
     60 H7        -30.0862   47.1340   39.0400 H           1 MOL       0.1718
     61 H8        -31.5717   47.9311   39.0896 H           1 MOL       0.1718
     62 H9        -26.7700   44.8894   34.5711 H           1 MOL       0.1902
     63 H10       -25.3582   44.5026   32.8807 H           1 MOL       0.0839
     64 H11       -25.9003   44.2498   30.5451 H           1 MOL       0.0584
     65 H12       -27.6202   44.3593   30.8778 H           1 MOL       0.0584
     66 H13       -27.7506   42.2845   29.5456 H           1 MOL       0.0703
     67 H14       -25.5832   42.2250   33.1752 H           1 MOL       0.0703
     68 H15       -27.8176   39.8844   29.5664 H           1 MOL       0.0736
     69 H16       -25.6519   39.8392   33.1693 H           1 MOL       0.0736
     70 H17       -28.2107   46.5256   32.7638 H           1 MOL       0.1842
     71 H18       -29.1222   49.8956   32.5266 H           1 MOL       0.0244
     72 H19       -29.5870   48.3519   33.2744 H           1 MOL       0.0244
     73 H20       -29.3370   48.4433   31.5349 H           1 MOL       0.0244
     74 H21       -25.9498   48.7657   34.2941 H           1 MOL       0.0549
     75 H22       -27.3845   47.9712   34.8549 H           1 MOL       0.0549
     76 H23       -25.8587   51.2614   34.2416 H           1 MOL       0.0703
     77 H24       -29.3529   49.2810   35.5606 H           1 MOL       0.0703
     78 H25       -26.7255   53.3327   35.0804 H           1 MOL       0.0736
     79 H26       -30.1823   51.3607   36.4433 H           1 MOL       0.0736
     80 H27       -27.7187   48.4043   30.1943 H           1 MOL       0.1883
     81 H28       -25.4173   50.1290   29.5597 H           1 MOL       0.0754
     82 H29       -25.2399   48.6462   27.5014 H           1 MOL       0.0544
     83 H30       -26.4688   47.5974   28.1949 H           1 MOL       0.0544
     84 H31       -22.6980   47.5624   29.7031 H           1 MOL       0.1814
     85 H32       -23.1954   48.9401   28.8895 H           1 MOL       0.1814
@<TRIPOS>BOND
     1     1     5  ar
     2     2     1  ar
     3     3     2  ar
     4     6     3   1
     5     3     4  ar
     6     4    11  ar
     7    11    10   1
     8    11     5  ar
     9     7     6   1
    10     8     7   1
    11     8     9   2
    12    13    12   1
    13    13    16   1
    14    14    13   1
    15    14    15   2
    16    16    17   1
    17    17    19  ar
    18    17    18  ar
    19    18    20  ar
    20    20    22  ar
    21    22    23   1
    22    21    22  ar
    23    19    21  ar
    24    23    24   1
    25    24    27  ar
    26    24    26  ar
    27    24    25  ar
    28    29    28   1
    29    29    33   1
    30    31    29   1
    31    29    30   1
    32    31    32   2
    33    33    34   1
    34    34    36  ar
    35    34    35  ar
    36    35    37  ar
    37    37    39  ar
    38    39    40   1
    39    38    39  ar
    40    36    38  ar
    41    40    41   1
    42    41    44  ar
    43    41    43  ar
    44    41    42  ar
    45    46    47   1
    46    46    49   1
    47    45    46   1
    48    49    50   1
    49    50    51   2
    50    50    52  am
    51    47    53  ar
    52    47    48  ar
    53    28    14  am
    54    12     8  am
    55    31    45  am
    56     1    54   1
    57     2    55   1
    58     4    56   1
    59     5    57   1
    60     6    58   1
    61     6    59   1
    62    10    60   1
    63    10    61   1
    64    12    62   1
    65    13    63   1
    66    16    64   1
    67    16    65   1
    68    18    66   1
    69    19    67   1
    70    20    68   1
    71    21    69   1
    72    28    70   1
    73    30    71   1
    74    30    72   1
    75    30    73   1
    76    33    74   1
    77    33    75   1
    78    35    76   1
    79    36    77   1
    80    37    78   1
    81    38    79   1
    82    45    80   1
    83    46    81   1
    84    49    82   1
    85    49    83   1
    86    52    84   1
    87    52    85   1
@<TRIPOS>SUBSTRUCTURE
     1  MOL      1

