@<TRIPOS>MOLECULE
1jyq_ligand_004
    85    87
SMALL
GAST_HUCK
****
This file was generated by PARSER (from files_GN.cpp)

@<TRIPOS>ATOM
      1 C1        -28.4475   37.6458   35.6948 C.ar        1 MOL      -0.0801
      2 C2        -29.3994   38.6777   35.7676 C.ar        1 MOL      -0.0711
      3 C3        -29.4165   39.7143   34.8018 C.ar        1 MOL      -0.0250
      4 C4        -28.4960   39.6545   33.7257 C.ar        1 MOL      -0.0414
      5 C6        -27.5043   37.6260   34.6474 C.ar        1 MOL      -0.0516
      6 C12       -30.3786   40.8393   34.9551 C.3         1 MOL       0.1084
      7 O13       -30.0763   42.0157   34.1914 O.3         1 MOL      -0.2508
      8 C16       -28.8987   42.6951   34.1551 C.2         1 MOL       0.3241
      9 O18       -27.8313   42.2519   34.8603 O.2         1 MOL      -0.3773
     10 N11       -26.6247   38.6131   32.6622 N.pl3       1 MOL      -0.3383
     11 C5        -27.5341   38.6255   33.6569 C.ar        1 MOL       0.0282
     12 N         -28.8159   43.7516   33.3192 N.am        1 MOL      -0.2380
     13 CA        -27.6247   44.4952   32.9832 C.3         1 MOL       0.1484
     14 C         -27.8824   45.9316   32.9782 C.2         1 MOL       0.2046
     15 O         -28.8320   46.3511   32.3299 O.2         1 MOL      -0.3944
     16 CB        -27.0396   44.0223   31.6117 C.3         1 MOL       0.0400
     17 CG        -28.0530   43.7901   30.5406 C.ar        1 MOL      -0.0004
     18 CD1       -28.6934   44.8734   29.8892 C.ar        1 MOL      -0.0239
     19 CD2       -28.4154   42.4750   30.1712 C.ar        1 MOL      -0.0239
     20 CE1       -29.6993   44.6421   28.9339 C.ar        1 MOL       0.0115
     21 CE2       -29.4144   42.2439   29.2092 C.ar        1 MOL       0.0115
     22 CZ        -30.0910   43.3273   28.6121 C.ar        1 MOL       0.1728
     23 OH        -31.0596   43.1086   27.6717 O.3         1 MOL      -0.2040
     24 P         -32.4967   42.9986   28.2678 P.3         1 MOL       0.1348
     25 O1P       -33.4115   42.8454   27.1651 O.co2       1 MOL      -0.6653
     26 O2P       -32.8984   44.1833   28.9840 O.co2       1 MOL      -0.6653
     27 O3P       -32.6565   41.8404   29.1111 O.co2       1 MOL      -0.6653
     28 N         -27.0201   46.7492   33.5850 N.am        1 MOL      -0.2712
     29 CA        -26.9603   48.1955   33.7340 C.3         1 MOL       0.1461
     30 CH3       -28.3954   48.8264   33.8657 C.3         1 MOL      -0.0287
     31 C         -26.2178   48.6966   32.5521 C.2         1 MOL       0.2294
     32 O         -26.6609   49.6092   31.8665 O.2         1 MOL      -0.3416
     33 CB        -26.1296   48.4433   35.0664 C.3         1 MOL       0.0325
     34 CG        -26.2532   49.7724   35.7436 C.ar        1 MOL      -0.0034
     35 CD1       -26.5113   49.8548   37.1352 C.ar        1 MOL      -0.0242
     36 CD2       -26.1736   50.9765   35.0080 C.ar        1 MOL      -0.0242
     37 CE1       -26.7867   51.0902   37.7472 C.ar        1 MOL       0.0115
     38 CE2       -26.4824   52.2119   35.6103 C.ar        1 MOL       0.0115
     39 CZ        -26.8477   52.2703   36.9719 C.ar        1 MOL       0.1728
     40 OH        -27.2542   53.4657   37.5118 O.3         1 MOL      -0.2040
     41 P         -28.8081   53.6178   37.5244 P.3         1 MOL       0.1348
     42 O1P       -29.4075   53.3827   36.2356 O.co2       1 MOL      -0.6653
     43 O2P       -29.1327   54.9815   37.8533 O.co2       1 MOL      -0.6653
     44 O3P       -29.4418   52.7821   38.5124 O.co2       1 MOL      -0.6653
     45 N         -25.0561   48.1316   32.2261 N.am        1 MOL      -0.2663
     46 CA        -24.1497   48.3840   31.1405 C.3         1 MOL       0.1112
     47 C         -23.5055   49.7191   31.2017 C.2         1 MOL       0.0626
     48 O         -22.1597   49.8405   31.2801 O.co2       1 MOL      -0.5664
     49 CB        -24.7030   47.9609   29.7340 C.3         1 MOL       0.0720
     50 CG        -25.1744   48.9907   28.8140 C.2         1 MOL       0.1774
     51 OD1       -25.0983   48.8238   27.6028 O.2         1 MOL      -0.3971
     52 ND2       -25.7713   50.0913   29.2217 N.am        1 MOL      -0.3007
     53 OXT       -24.2371   50.8549   31.1848 O.co2       1 MOL      -0.5664
     54 H1        -28.4239   36.9175   36.4114 H           1 MOL       0.0566
     55 H2        -30.0640   38.6852   36.5472 H           1 MOL       0.0448
     56 H3        -28.5092   40.3687   32.9945 H           1 MOL       0.0451
     57 H4        -26.7990   36.8847   34.6138 H           1 MOL       0.0459
     58 H5        -30.4322   41.1474   36.0022 H           1 MOL       0.0774
     59 H6        -31.3695   40.4832   34.6658 H           1 MOL       0.0774
     60 H7        -26.6294   39.3125   31.9886 H           1 MOL       0.1718
     61 H8        -25.9430   37.9236   32.6362 H           1 MOL       0.1718
     62 H9        -29.6206   43.9744   32.8230 H           1 MOL       0.1902
     63 H10       -26.8544   44.2945   33.7369 H           1 MOL       0.0839
     64 H11       -26.4900   43.0955   31.7883 H           1 MOL       0.0584
     65 H12       -26.2957   44.7419   31.2573 H           1 MOL       0.0584
     66 H13       -28.4442   45.8362   30.1226 H           1 MOL       0.0703
     67 H14       -27.9602   41.6712   30.6103 H           1 MOL       0.0703
     68 H15       -30.1598   45.4368   28.4827 H           1 MOL       0.0736
     69 H16       -29.6625   41.2835   28.9577 H           1 MOL       0.0736
     70 H17       -26.2792   46.2849   34.0047 H           1 MOL       0.1842
     71 H18       -28.3518   49.9035   34.0422 H           1 MOL       0.0244
     72 H19       -28.9298   48.3671   34.6976 H           1 MOL       0.0244
     73 H20       -28.9793   48.6915   32.9552 H           1 MOL       0.0244
     74 H21       -25.0628   48.2726   34.8959 H           1 MOL       0.0549
     75 H22       -26.4281   47.6739   35.7877 H           1 MOL       0.0549
     76 H23       -26.5342   49.0106   37.7128 H           1 MOL       0.0703
     77 H24       -25.9574   50.9607   34.0110 H           1 MOL       0.0703
     78 H25       -27.0005   51.1246   38.7462 H           1 MOL       0.0736
     79 H26       -26.4898   53.0636   35.0447 H           1 MOL       0.0736
     80 H27       -24.7735   47.4134   32.8090 H           1 MOL       0.1883
     81 H28       -23.3393   47.6758   31.3413 H           1 MOL       0.0754
     82 H29       -25.5212   47.2499   29.8653 H           1 MOL       0.0544
     83 H30       -23.9142   47.3968   29.2195 H           1 MOL       0.0544
     84 H31       -26.1137   50.7215   28.5635 H           1 MOL       0.1814
     85 H32       -25.8931   50.2724   30.1696 H           1 MOL       0.1814
@<TRIPOS>BOND
     1     1     5  ar
     2     2     1  ar
     3     3     2  ar
     4     6     3   1
     5     3     4  ar
     6     4    11  ar
     7    11    10   1
     8    11     5  ar
     9     7     6   1
    10     8     7   1
    11     8     9   2
    12    13    12   1
    13    13    16   1
    14    14    13   1
    15    14    15   2
    16    16    17   1
    17    17    19  ar
    18    17    18  ar
    19    18    20  ar
    20    20    22  ar
    21    22    23   1
    22    21    22  ar
    23    19    21  ar
    24    23    24   1
    25    24    27  ar
    26    24    26  ar
    27    24    25  ar
    28    29    28   1
    29    29    33   1
    30    31    29   1
    31    29    30   1
    32    31    32   2
    33    33    34   1
    34    34    36  ar
    35    34    35  ar
    36    35    37  ar
    37    37    39  ar
    38    39    40   1
    39    38    39  ar
    40    36    38  ar
    41    40    41   1
    42    41    44  ar
    43    41    43  ar
    44    41    42  ar
    45    46    47   1
    46    46    49   1
    47    45    46   1
    48    49    50   1
    49    50    51   2
    50    50    52  am
    51    47    53  ar
    52    47    48  ar
    53    28    14  am
    54    12     8  am
    55    31    45  am
    56     1    54   1
    57     2    55   1
    58     4    56   1
    59     5    57   1
    60     6    58   1
    61     6    59   1
    62    10    60   1
    63    10    61   1
    64    12    62   1
    65    13    63   1
    66    16    64   1
    67    16    65   1
    68    18    66   1
    69    19    67   1
    70    20    68   1
    71    21    69   1
    72    28    70   1
    73    30    71   1
    74    30    72   1
    75    30    73   1
    76    33    74   1
    77    33    75   1
    78    35    76   1
    79    36    77   1
    80    37    78   1
    81    38    79   1
    82    45    80   1
    83    46    81   1
    84    49    82   1
    85    49    83   1
    86    52    84   1
    87    52    85   1
@<TRIPOS>SUBSTRUCTURE
     1  MOL      1

