@<TRIPOS>MOLECULE
1jyq_ligand_086
    85    87
SMALL
GAST_HUCK
****
This file was generated by PARSER (from files_GN.cpp)

@<TRIPOS>ATOM
      1 C1        -23.5893   39.8694   25.7138 C.ar        1 MOL      -0.0801
      2 C2        -23.3581   39.3904   27.0195 C.ar        1 MOL      -0.0711
      3 C3        -22.5487   40.1163   27.9209 C.ar        1 MOL      -0.0250
      4 C4        -21.9868   41.3420   27.4955 C.ar        1 MOL      -0.0414
      5 C6        -23.0060   41.0793   25.2948 C.ar        1 MOL      -0.0516
      6 C12       -22.2464   39.5979   29.2828 C.3         1 MOL       0.1084
      7 O13       -22.5975   40.5239   30.3155 O.3         1 MOL      -0.2508
      8 C16       -23.8306   40.8824   30.7528 C.2         1 MOL       0.3241
      9 O18       -24.9503   40.3463   30.1959 O.2         1 MOL      -0.3773
     10 N11       -21.6513   42.9768   25.7877 N.pl3       1 MOL      -0.3383
     11 C5        -22.2067   41.8191   26.1868 C.ar        1 MOL       0.0282
     12 N         -23.8816   41.7543   31.7836 N.am        1 MOL      -0.2380
     13 CA        -25.0222   42.2763   32.4821 C.3         1 MOL       0.1484
     14 C         -25.8784   41.2054   32.9827 C.2         1 MOL       0.2046
     15 O         -25.6583   40.7632   34.1057 O.2         1 MOL      -0.3944
     16 CB        -25.7876   43.4253   31.7407 C.3         1 MOL       0.0400
     17 CG        -26.4407   44.4316   32.6419 C.ar        1 MOL      -0.0004
     18 CD1       -26.2056   45.8202   32.4789 C.ar        1 MOL      -0.0239
     19 CD2       -27.3100   44.0275   33.6835 C.ar        1 MOL      -0.0239
     20 CE1       -26.7990   46.7646   33.3381 C.ar        1 MOL       0.0115
     21 CE2       -27.8943   44.9667   34.5527 C.ar        1 MOL       0.0115
     22 CZ        -27.6202   46.3401   34.4032 C.ar        1 MOL       0.1728
     23 OH        -28.2058   47.2400   35.2485 O.3         1 MOL      -0.2040
     24 P         -27.3293   47.6086   36.4800 P.3         1 MOL       0.1348
     25 O1P       -26.8695   46.4710   37.2414 O.co2       1 MOL      -0.6653
     26 O2P       -28.1155   48.4461   37.3447 O.co2       1 MOL      -0.6653
     27 O3P       -26.1945   48.3984   36.0584 O.co2       1 MOL      -0.6653
     28 N         -26.8751   40.6813   32.2622 N.am        1 MOL      -0.2712
     29 CA        -27.8907   39.7158   32.6770 C.3         1 MOL       0.1461
     30 CH3       -28.9383   40.4899   33.5534 C.3         1 MOL      -0.0287
     31 C         -27.3178   38.5785   33.4240 C.2         1 MOL       0.2294
     32 O         -27.9851   38.0153   34.2884 O.2         1 MOL      -0.3416
     33 CB        -28.6391   39.2170   31.3804 C.3         1 MOL       0.0325
     34 CG        -27.8173   38.4756   30.3821 C.ar        1 MOL      -0.0034
     35 CD1       -27.2152   39.1470   29.2834 C.ar        1 MOL      -0.0242
     36 CD2       -27.6108   37.0817   30.5073 C.ar        1 MOL      -0.0242
     37 CE1       -26.3768   38.4572   28.3943 C.ar        1 MOL       0.0115
     38 CE2       -26.7499   36.3966   29.6302 C.ar        1 MOL       0.0115
     39 CZ        -26.1087   37.0846   28.5772 C.ar        1 MOL       0.1728
     40 OH        -25.1416   36.4817   27.8215 O.3         1 MOL      -0.2040
     41 P         -25.6560   35.5118   26.7223 P.3         1 MOL       0.1348
     42 O1P       -24.5110   35.1440   25.9291 O.co2       1 MOL      -0.6653
     43 O2P       -26.6276   36.1126   25.8382 O.co2       1 MOL      -0.6653
     44 O3P       -26.1799   34.2988   27.3045 O.co2       1 MOL      -0.6653
     45 N         -26.0895   38.1457   33.1711 N.am        1 MOL      -0.2663
     46 CA        -25.3149   37.2104   33.9499 C.3         1 MOL       0.1112
     47 C         -23.9420   37.7558   33.9728 C.2         1 MOL       0.0626
     48 O         -22.9128   37.2256   33.2768 O.co2       1 MOL      -0.5664
     49 CB        -25.4115   35.7464   33.4323 C.3         1 MOL       0.0720
     50 CG        -26.0463   34.8356   34.3733 C.2         1 MOL       0.1774
     51 OD1       -26.9582   34.0971   34.0219 O.2         1 MOL      -0.3971
     52 ND2       -25.6269   34.7407   35.6170 N.am        1 MOL      -0.3007
     53 OXT       -23.7631   38.9834   34.5154 O.co2       1 MOL      -0.5664
     54 H1        -24.1690   39.3323   25.0670 H           1 MOL       0.0566
     55 H2        -23.7710   38.5004   27.2963 H           1 MOL       0.0448
     56 H3        -21.4048   41.8885   28.1389 H           1 MOL       0.0451
     57 H4        -23.1663   41.4134   24.3413 H           1 MOL       0.0459
     58 H5        -21.1718   39.4155   29.3431 H           1 MOL       0.0774
     59 H6        -22.7474   38.6436   29.4789 H           1 MOL       0.0774
     60 H7        -21.1252   43.5052   26.4103 H           1 MOL       0.1718
     61 H8        -21.7813   43.2887   24.8777 H           1 MOL       0.1718
     62 H9        -23.0149   42.0631   32.1046 H           1 MOL       0.1902
     63 H10       -24.5516   42.7593   33.3512 H           1 MOL       0.0839
     64 H11       -26.5599   43.0145   31.0815 H           1 MOL       0.0584
     65 H12       -25.0853   43.9410   31.0824 H           1 MOL       0.0584
     66 H13       -25.6021   46.1585   31.7258 H           1 MOL       0.0703
     67 H14       -27.5228   43.0411   33.8303 H           1 MOL       0.0703
     68 H15       -26.6132   47.7589   33.1991 H           1 MOL       0.0736
     69 H16       -28.5057   44.6471   35.3063 H           1 MOL       0.0736
     70 H17       -26.9597   41.0198   31.3587 H           1 MOL       0.1842
     71 H18       -29.7973   39.8591   33.7964 H           1 MOL       0.0244
     72 H19       -29.3132   41.3670   33.0225 H           1 MOL       0.0244
     73 H20       -28.5016   40.8276   34.4943 H           1 MOL       0.0244
     74 H21       -29.0894   40.0883   30.8905 H           1 MOL       0.0549
     75 H22       -29.4844   38.5810   31.6691 H           1 MOL       0.0549
     76 H23       -27.3915   40.1392   29.1292 H           1 MOL       0.0703
     77 H24       -28.0718   36.5607   31.2541 H           1 MOL       0.0703
     78 H25       -25.9339   38.9624   27.6201 H           1 MOL       0.0736
     79 H26       -26.5846   35.3967   29.7620 H           1 MOL       0.0736
     80 H27       -25.6285   38.5655   32.4312 H           1 MOL       0.1883
     81 H28       -25.6460   37.2363   34.9901 H           1 MOL       0.0754
     82 H29       -24.4090   35.3536   33.2279 H           1 MOL       0.0544
     83 H30       -25.9516   35.7444   32.4837 H           1 MOL       0.0544
     84 H31       -26.0401   34.1030   36.2217 H           1 MOL       0.1814
     85 H32       -24.8737   35.2684   35.9237 H           1 MOL       0.1814
@<TRIPOS>BOND
     1     1     5  ar
     2     2     1  ar
     3     3     2  ar
     4     6     3   1
     5     3     4  ar
     6     4    11  ar
     7    11    10   1
     8    11     5  ar
     9     7     6   1
    10     8     7   1
    11     8     9   2
    12    13    12   1
    13    13    16   1
    14    14    13   1
    15    14    15   2
    16    16    17   1
    17    17    19  ar
    18    17    18  ar
    19    18    20  ar
    20    20    22  ar
    21    22    23   1
    22    21    22  ar
    23    19    21  ar
    24    23    24   1
    25    24    27  ar
    26    24    26  ar
    27    24    25  ar
    28    29    28   1
    29    29    33   1
    30    31    29   1
    31    29    30   1
    32    31    32   2
    33    33    34   1
    34    34    36  ar
    35    34    35  ar
    36    35    37  ar
    37    37    39  ar
    38    39    40   1
    39    38    39  ar
    40    36    38  ar
    41    40    41   1
    42    41    44  ar
    43    41    43  ar
    44    41    42  ar
    45    46    47   1
    46    46    49   1
    47    45    46   1
    48    49    50   1
    49    50    51   2
    50    50    52  am
    51    47    53  ar
    52    47    48  ar
    53    28    14  am
    54    12     8  am
    55    31    45  am
    56     1    54   1
    57     2    55   1
    58     4    56   1
    59     5    57   1
    60     6    58   1
    61     6    59   1
    62    10    60   1
    63    10    61   1
    64    12    62   1
    65    13    63   1
    66    16    64   1
    67    16    65   1
    68    18    66   1
    69    19    67   1
    70    20    68   1
    71    21    69   1
    72    28    70   1
    73    30    71   1
    74    30    72   1
    75    30    73   1
    76    33    74   1
    77    33    75   1
    78    35    76   1
    79    36    77   1
    80    37    78   1
    81    38    79   1
    82    45    80   1
    83    46    81   1
    84    49    82   1
    85    49    83   1
    86    52    84   1
    87    52    85   1
@<TRIPOS>SUBSTRUCTURE
     1  MOL      1

