@<TRIPOS>MOLECULE
1jyq_ligand_079
    85    87
SMALL
GAST_HUCK
****
This file was generated by PARSER (from files_GN.cpp)

@<TRIPOS>ATOM
      1 C1        -23.8903   38.9417   30.5989 C.ar        1 MOL      -0.0801
      2 C2        -23.8099   39.8090   31.7032 C.ar        1 MOL      -0.0711
      3 C3        -22.9531   40.9332   31.6759 C.ar        1 MOL      -0.0250
      4 C4        -22.1593   41.1482   30.5258 C.ar        1 MOL      -0.0414
      5 C6        -23.1109   39.1761   29.4545 C.ar        1 MOL      -0.0516
      6 C12       -22.8779   41.8571   32.8377 C.3         1 MOL       0.1084
      7 O13       -23.8024   42.9573   32.7617 O.3         1 MOL      -0.2508
      8 C16       -25.1494   42.9131   32.9538 C.2         1 MOL       0.3241
      9 O18       -25.7511   41.7311   33.2408 O.2         1 MOL      -0.3773
     10 N11       -21.5056   40.5260   28.3116 N.pl3       1 MOL      -0.3383
     11 C5        -22.2441   40.2877   29.4104 C.ar        1 MOL       0.0282
     12 N         -25.8608   44.0667   32.9801 N.am        1 MOL      -0.2380
     13 CA        -27.2562   44.1736   33.3384 C.3         1 MOL       0.1484
     14 C         -27.7426   45.5216   33.0389 C.2         1 MOL       0.2046
     15 O         -28.6607   45.6447   32.2334 O.2         1 MOL      -0.3944
     16 CB        -27.5030   43.7556   34.8378 C.3         1 MOL       0.0400
     17 CG        -28.8102   43.0827   35.1071 C.ar        1 MOL      -0.0004
     18 CD1       -29.0855   41.8048   34.5612 C.ar        1 MOL      -0.0239
     19 CD2       -29.7488   43.6355   36.0118 C.ar        1 MOL      -0.0239
     20 CE1       -30.2443   41.0977   34.9232 C.ar        1 MOL       0.0115
     21 CE2       -30.9146   42.9313   36.3670 C.ar        1 MOL       0.0115
     22 CZ        -31.1739   41.6596   35.8187 C.ar        1 MOL       0.1728
     23 OH        -32.2290   40.9163   36.2711 O.3         1 MOL      -0.2040
     24 P         -33.5239   41.0396   35.4184 P.3         1 MOL       0.1348
     25 O1P       -34.5085   40.1677   36.0058 O.co2       1 MOL      -0.6653
     26 O2P       -33.3347   40.6051   34.0564 O.co2       1 MOL      -0.6653
     27 O3P       -34.0683   42.3737   35.4449 O.co2       1 MOL      -0.6653
     28 N         -27.1720   46.5848   33.6032 N.am        1 MOL      -0.2712
     29 CA        -27.4026   48.0156   33.4440 C.3         1 MOL       0.1461
     30 CH3       -28.8514   48.4285   32.9981 C.3         1 MOL      -0.0287
     31 C         -26.4597   48.4793   32.3892 C.2         1 MOL       0.2294
     32 O         -25.6251   49.3543   32.6195 O.2         1 MOL      -0.3416
     33 CB        -27.0928   48.6748   34.8571 C.3         1 MOL       0.0325
     34 CG        -28.1621   48.7017   35.8989 C.ar        1 MOL      -0.0034
     35 CD1       -28.8367   47.5304   36.3176 C.ar        1 MOL      -0.0242
     36 CD2       -28.5220   49.9270   36.5243 C.ar        1 MOL      -0.0242
     37 CE1       -29.8446   47.5748   37.2971 C.ar        1 MOL       0.0115
     38 CE2       -29.5210   49.9741   37.5167 C.ar        1 MOL       0.0115
     39 CZ        -30.2145   48.8034   37.8911 C.ar        1 MOL       0.1728
     40 OH        -31.1426   48.8425   38.8990 O.3         1 MOL      -0.2040
     41 P         -32.5880   49.1607   38.4166 P.3         1 MOL       0.1348
     42 O1P       -33.4416   49.1622   39.5779 O.co2       1 MOL      -0.6653
     43 O2P       -33.0944   48.1615   37.5115 O.co2       1 MOL      -0.6653
     44 O3P       -32.6962   50.4670   37.8150 O.co2       1 MOL      -0.6653
     45 N         -26.5775   48.0450   31.1410 N.am        1 MOL      -0.2663
     46 CA        -26.0575   48.6778   29.9520 C.3         1 MOL       0.1112
     47 C         -26.9011   48.2367   28.8124 C.2         1 MOL       0.0626
     48 O         -27.6385   49.1341   28.1114 O.co2       1 MOL      -0.5664
     49 CB        -24.5447   48.4048   29.6630 C.3         1 MOL       0.0720
     50 CG        -23.6108   49.1567   30.4844 C.2         1 MOL       0.1774
     51 OD1       -23.7597   50.3573   30.6644 O.2         1 MOL      -0.3971
     52 ND2       -22.4786   48.6368   30.8986 N.am        1 MOL      -0.3007
     53 OXT       -27.0047   46.9321   28.4567 O.co2       1 MOL      -0.5664
     54 H1        -24.5254   38.1379   30.6274 H           1 MOL       0.0566
     55 H2        -24.3715   39.6035   32.5302 H           1 MOL       0.0448
     56 H3        -21.5137   41.9436   30.4925 H           1 MOL       0.0451
     57 H4        -23.1795   38.5426   28.6550 H           1 MOL       0.0459
     58 H5        -21.8801   42.2930   32.8973 H           1 MOL       0.0774
     59 H6        -23.0327   41.3151   33.7733 H           1 MOL       0.0774
     60 H7        -20.9274   41.3068   28.2767 H           1 MOL       0.1718
     61 H8        -21.5621   39.9411   27.5368 H           1 MOL       0.1718
     62 H9        -25.3855   44.8891   32.7548 H           1 MOL       0.1902
     63 H10       -27.7813   43.4673   32.6831 H           1 MOL       0.0839
     64 H11       -27.3695   44.6258   35.4890 H           1 MOL       0.0584
     65 H12       -26.7353   43.0458   35.1648 H           1 MOL       0.0584
     66 H13       -28.4077   41.3591   33.9356 H           1 MOL       0.0703
     67 H14       -29.5706   44.5358   36.4542 H           1 MOL       0.0703
     68 H15       -30.3989   40.1599   34.5461 H           1 MOL       0.0736
     69 H16       -31.5580   43.3331   37.0509 H           1 MOL       0.0736
     70 H17       -26.4257   46.3590   34.1846 H           1 MOL       0.1842
     71 H18       -28.9784   49.5085   33.0811 H           1 MOL       0.0244
     72 H19       -29.5960   47.9481   33.6340 H           1 MOL       0.0244
     73 H20       -29.0680   48.1514   31.9657 H           1 MOL       0.0244
     74 H21       -26.7965   49.7107   34.6900 H           1 MOL       0.0549
     75 H22       -26.2166   48.1972   35.3054 H           1 MOL       0.0549
     76 H23       -28.5953   46.6310   35.9024 H           1 MOL       0.0703
     77 H24       -28.0544   50.7955   36.2717 H           1 MOL       0.0703
     78 H25       -30.3292   46.7163   37.5813 H           1 MOL       0.0736
     79 H26       -29.7454   50.8679   37.9657 H           1 MOL       0.0736
     80 H27       -27.2339   47.3417   30.9919 H           1 MOL       0.1883
     81 H28       -26.2109   49.7584   30.0389 H           1 MOL       0.0754
     82 H29       -24.3220   48.6812   28.6284 H           1 MOL       0.0544
     83 H30       -24.3576   47.3316   29.7621 H           1 MOL       0.0544
     84 H31       -21.8410   49.1929   31.3768 H           1 MOL       0.1814
     85 H32       -22.2354   47.7262   30.6684 H           1 MOL       0.1814
@<TRIPOS>BOND
     1     1     5  ar
     2     2     1  ar
     3     3     2  ar
     4     6     3   1
     5     3     4  ar
     6     4    11  ar
     7    11    10   1
     8    11     5  ar
     9     7     6   1
    10     8     7   1
    11     8     9   2
    12    13    12   1
    13    13    16   1
    14    14    13   1
    15    14    15   2
    16    16    17   1
    17    17    19  ar
    18    17    18  ar
    19    18    20  ar
    20    20    22  ar
    21    22    23   1
    22    21    22  ar
    23    19    21  ar
    24    23    24   1
    25    24    27  ar
    26    24    26  ar
    27    24    25  ar
    28    29    28   1
    29    29    33   1
    30    31    29   1
    31    29    30   1
    32    31    32   2
    33    33    34   1
    34    34    36  ar
    35    34    35  ar
    36    35    37  ar
    37    37    39  ar
    38    39    40   1
    39    38    39  ar
    40    36    38  ar
    41    40    41   1
    42    41    44  ar
    43    41    43  ar
    44    41    42  ar
    45    46    47   1
    46    46    49   1
    47    45    46   1
    48    49    50   1
    49    50    51   2
    50    50    52  am
    51    47    53  ar
    52    47    48  ar
    53    28    14  am
    54    12     8  am
    55    31    45  am
    56     1    54   1
    57     2    55   1
    58     4    56   1
    59     5    57   1
    60     6    58   1
    61     6    59   1
    62    10    60   1
    63    10    61   1
    64    12    62   1
    65    13    63   1
    66    16    64   1
    67    16    65   1
    68    18    66   1
    69    19    67   1
    70    20    68   1
    71    21    69   1
    72    28    70   1
    73    30    71   1
    74    30    72   1
    75    30    73   1
    76    33    74   1
    77    33    75   1
    78    35    76   1
    79    36    77   1
    80    37    78   1
    81    38    79   1
    82    45    80   1
    83    46    81   1
    84    49    82   1
    85    49    83   1
    86    52    84   1
    87    52    85   1
@<TRIPOS>SUBSTRUCTURE
     1  MOL      1

