@<TRIPOS>MOLECULE
1jyq_ligand_063
    85    87
SMALL
GAST_HUCK
****
This file was generated by PARSER (from files_GN.cpp)

@<TRIPOS>ATOM
      1 C1        -23.8980   47.4651   29.2478 C.ar        1 MOL      -0.0801
      2 C2        -25.2053   47.1695   29.6721 C.ar        1 MOL      -0.0711
      3 C3        -25.8408   47.9584   30.6629 C.ar        1 MOL      -0.0250
      4 C4        -25.1384   49.0628   31.2017 C.ar        1 MOL      -0.0414
      5 C6        -23.2108   48.5600   29.7955 C.ar        1 MOL      -0.0516
      6 C12       -27.2084   47.6441   31.1316 C.3         1 MOL       0.1084
      7 O13       -27.1499   47.1886   32.4881 O.3         1 MOL      -0.2508
      8 C16       -28.2172   46.8080   33.2367 C.2         1 MOL       0.3241
      9 O18       -29.4696   46.8487   32.7201 O.2         1 MOL      -0.3773
     10 N11       -23.1972   50.4446   31.2686 N.pl3       1 MOL      -0.3383
     11 C5        -23.8346   49.3739   30.7646 C.ar        1 MOL       0.0282
     12 N         -27.9935   46.3608   34.4959 N.am        1 MOL      -0.2380
     13 CA        -29.0203   45.8770   35.3840 C.3         1 MOL       0.1484
     14 C         -29.9445   46.9608   35.7141 C.2         1 MOL       0.2046
     15 O         -31.0954   46.9074   35.2877 O.2         1 MOL      -0.3944
     16 CB        -28.3621   45.2095   36.6327 C.3         1 MOL       0.0400
     17 CG        -29.2760   44.3186   37.4080 C.ar        1 MOL      -0.0004
     18 CD1       -29.7665   43.1310   36.8190 C.ar        1 MOL      -0.0239
     19 CD2       -29.6274   44.5957   38.7515 C.ar        1 MOL      -0.0239
     20 CE1       -30.5772   42.2436   37.5464 C.ar        1 MOL       0.0115
     21 CE2       -30.4372   43.7090   39.4829 C.ar        1 MOL       0.0115
     22 CZ        -30.8982   42.5127   38.8927 C.ar        1 MOL       0.1728
     23 OH        -31.7055   41.6432   39.5696 O.3         1 MOL      -0.2040
     24 P         -30.9394   40.5429   40.3559 P.3         1 MOL       0.1348
     25 O1P       -29.7566   40.0353   39.7094 O.co2       1 MOL      -0.6653
     26 O2P       -31.8429   39.4209   40.4649 O.co2       1 MOL      -0.6653
     27 O3P       -30.6338   40.9485   41.7100 O.co2       1 MOL      -0.6653
     28 N         -29.4749   48.0679   36.2909 N.am        1 MOL      -0.2712
     29 CA        -30.0226   49.4102   36.3164 C.3         1 MOL       0.1461
     30 CH3       -29.9589   49.9233   34.8361 C.3         1 MOL      -0.0287
     31 C         -29.1568   50.2800   37.1436 C.2         1 MOL       0.2294
     32 O         -28.2499   49.8017   37.8160 O.2         1 MOL      -0.3416
     33 CB        -31.5057   49.4871   36.8417 C.3         1 MOL       0.0325
     34 CG        -31.7274   49.2581   38.2982 C.ar        1 MOL      -0.0034
     35 CD1       -31.4945   47.9894   38.8695 C.ar        1 MOL      -0.0242
     36 CD2       -32.2578   50.2815   39.1230 C.ar        1 MOL      -0.0242
     37 CE1       -31.7856   47.7434   40.2249 C.ar        1 MOL       0.0115
     38 CE2       -32.5632   50.0349   40.4722 C.ar        1 MOL       0.0115
     39 CZ        -32.3070   48.7700   41.0393 C.ar        1 MOL       0.1728
     40 OH        -32.7068   48.5066   42.3237 O.3         1 MOL      -0.2040
     41 P         -31.6392   48.8301   43.4056 P.3         1 MOL       0.1348
     42 O1P       -31.1973   50.2066   43.3583 O.co2       1 MOL      -0.6653
     43 O2P       -30.5011   47.9382   43.3749 O.co2       1 MOL      -0.6653
     44 O3P       -32.2889   48.6508   44.6804 O.co2       1 MOL      -0.6653
     45 N         -29.3939   51.5899   37.2389 N.am        1 MOL      -0.2663
     46 CA        -28.6767   52.5340   38.0522 C.3         1 MOL       0.1112
     47 C         -29.4917   53.7653   38.1954 C.2         1 MOL       0.0626
     48 O         -30.7876   53.6684   38.6021 O.co2       1 MOL      -0.5664
     49 CB        -27.2293   52.8047   37.5128 C.3         1 MOL       0.0720
     50 CG        -27.1994   53.4098   36.1930 C.2         1 MOL       0.1774
     51 OD1       -26.8722   54.5828   36.0701 O.2         1 MOL      -0.3971
     52 ND2       -27.5282   52.7401   35.1081 N.am        1 MOL      -0.3007
     53 OXT       -28.9600   55.0107   38.0732 O.co2       1 MOL      -0.5664
     54 H1        -23.4494   46.8814   28.5345 H           1 MOL       0.0566
     55 H2        -25.6922   46.3733   29.2555 H           1 MOL       0.0448
     56 H3        -25.5841   49.6520   31.9089 H           1 MOL       0.0451
     57 H4        -22.2590   48.7680   29.4771 H           1 MOL       0.0459
     58 H5        -27.6707   46.8651   30.5195 H           1 MOL       0.0774
     59 H6        -27.8286   48.5392   31.0628 H           1 MOL       0.0774
     60 H7        -23.6314   50.9977   31.9339 H           1 MOL       0.1718
     61 H8        -22.3043   50.6673   30.9692 H           1 MOL       0.1718
     62 H9        -27.0679   46.3076   34.7920 H           1 MOL       0.1902
     63 H10       -29.5467   45.0910   34.8311 H           1 MOL       0.0839
     64 H11       -27.9335   45.9831   37.2759 H           1 MOL       0.0584
     65 H12       -27.5224   44.5914   36.3056 H           1 MOL       0.0584
     66 H13       -29.5224   42.8879   35.8536 H           1 MOL       0.0703
     67 H14       -29.2914   45.4441   39.2132 H           1 MOL       0.0703
     68 H15       -30.9186   41.3884   37.1001 H           1 MOL       0.0736
     69 H16       -30.6832   43.9223   40.4521 H           1 MOL       0.0736
     70 H17       -28.5657   47.9865   36.6113 H           1 MOL       0.1842
     71 H18       -30.2972   50.9571   34.7495 H           1 MOL       0.0244
     72 H19       -30.5948   49.3153   34.1922 H           1 MOL       0.0244
     73 H20       -28.9381   49.8658   34.4527 H           1 MOL       0.0244
     74 H21       -32.1259   48.7702   36.3078 H           1 MOL       0.0549
     75 H22       -31.9128   50.4680   36.5742 H           1 MOL       0.0549
     76 H23       -31.1498   47.2224   38.2940 H           1 MOL       0.0703
     77 H24       -32.4610   51.2082   38.7414 H           1 MOL       0.0703
     78 H25       -31.6315   46.8065   40.6165 H           1 MOL       0.0736
     79 H26       -32.9833   50.7730   41.0440 H           1 MOL       0.0736
     80 H27       -30.1484   51.9408   36.7374 H           1 MOL       0.1883
     81 H28       -28.5904   52.1225   39.0632 H           1 MOL       0.0754
     82 H29       -26.6669   51.8718   37.4786 H           1 MOL       0.0544
     83 H30       -26.7095   53.4476   38.2331 H           1 MOL       0.0544
     84 H31       -27.5040   53.1712   34.2416 H           1 MOL       0.1814
     85 H32       -27.8027   51.8124   35.1719 H           1 MOL       0.1814
@<TRIPOS>BOND
     1     1     5  ar
     2     2     1  ar
     3     3     2  ar
     4     6     3   1
     5     3     4  ar
     6     4    11  ar
     7    11    10   1
     8    11     5  ar
     9     7     6   1
    10     8     7   1
    11     8     9   2
    12    13    12   1
    13    13    16   1
    14    14    13   1
    15    14    15   2
    16    16    17   1
    17    17    19  ar
    18    17    18  ar
    19    18    20  ar
    20    20    22  ar
    21    22    23   1
    22    21    22  ar
    23    19    21  ar
    24    23    24   1
    25    24    27  ar
    26    24    26  ar
    27    24    25  ar
    28    29    28   1
    29    29    33   1
    30    31    29   1
    31    29    30   1
    32    31    32   2
    33    33    34   1
    34    34    36  ar
    35    34    35  ar
    36    35    37  ar
    37    37    39  ar
    38    39    40   1
    39    38    39  ar
    40    36    38  ar
    41    40    41   1
    42    41    44  ar
    43    41    43  ar
    44    41    42  ar
    45    46    47   1
    46    46    49   1
    47    45    46   1
    48    49    50   1
    49    50    51   2
    50    50    52  am
    51    47    53  ar
    52    47    48  ar
    53    28    14  am
    54    12     8  am
    55    31    45  am
    56     1    54   1
    57     2    55   1
    58     4    56   1
    59     5    57   1
    60     6    58   1
    61     6    59   1
    62    10    60   1
    63    10    61   1
    64    12    62   1
    65    13    63   1
    66    16    64   1
    67    16    65   1
    68    18    66   1
    69    19    67   1
    70    20    68   1
    71    21    69   1
    72    28    70   1
    73    30    71   1
    74    30    72   1
    75    30    73   1
    76    33    74   1
    77    33    75   1
    78    35    76   1
    79    36    77   1
    80    37    78   1
    81    38    79   1
    82    45    80   1
    83    46    81   1
    84    49    82   1
    85    49    83   1
    86    52    84   1
    87    52    85   1
@<TRIPOS>SUBSTRUCTURE
     1  MOL      1

