@<TRIPOS>MOLECULE
1jyq_ligand_081
    85    87
SMALL
GAST_HUCK
****
This file was generated by PARSER (from files_GN.cpp)

@<TRIPOS>ATOM
      1 C1        -29.5157   49.7283   43.9931 C.ar        1 MOL      -0.0801
      2 C2        -30.7103   49.1035   43.5842 C.ar        1 MOL      -0.0711
      3 C3        -31.7506   49.8611   43.0006 C.ar        1 MOL      -0.0250
      4 C4        -31.5727   51.2508   42.8272 C.ar        1 MOL      -0.0414
      5 C6        -29.3448   51.1112   43.8106 C.ar        1 MOL      -0.0516
      6 C12       -33.0148   49.2280   42.5477 C.3         1 MOL       0.1084
      7 O13       -33.1386   49.2843   41.1199 O.3         1 MOL      -0.2508
      8 C16       -32.3119   48.6899   40.2212 C.2         1 MOL       0.3241
      9 O18       -31.2670   47.9450   40.6579 O.2         1 MOL      -0.3773
     10 N11       -30.2216   53.1980   43.0502 N.pl3       1 MOL      -0.3383
     11 C5        -30.3746   51.8772   43.2293 C.ar        1 MOL       0.0282
     12 N         -32.6194   48.8026   38.9106 N.am        1 MOL      -0.2380
     13 CA        -32.0238   48.0326   37.8520 C.3         1 MOL       0.1484
     14 C         -31.8078   48.8944   36.6876 C.2         1 MOL       0.2046
     15 O         -32.7841   49.3350   36.0928 O.2         1 MOL      -0.3944
     16 CB        -32.9659   46.8095   37.5788 C.3         1 MOL       0.0400
     17 CG        -32.3579   45.7132   36.7708 C.ar        1 MOL      -0.0004
     18 CD1       -31.2034   45.0424   37.2372 C.ar        1 MOL      -0.0239
     19 CD2       -32.9409   45.2864   35.5580 C.ar        1 MOL      -0.0239
     20 CE1       -30.6140   44.0108   36.4775 C.ar        1 MOL       0.0115
     21 CE2       -32.3510   44.2551   34.7983 C.ar        1 MOL       0.0115
     22 CZ        -31.1511   43.6523   35.2222 C.ar        1 MOL       0.1728
     23 OH        -30.6013   42.6763   34.4282 O.3         1 MOL      -0.2040
     24 P         -29.1069   42.8879   34.0415 P.3         1 MOL       0.1348
     25 O1P       -28.6561   44.2604   34.0498 O.co2       1 MOL      -0.6653
     26 O2P       -28.9010   42.3735   32.7098 O.co2       1 MOL      -0.6653
     27 O3P       -28.2503   42.1353   34.9204 O.co2       1 MOL      -0.6653
     28 N         -30.5724   49.2695   36.3433 N.am        1 MOL      -0.2712
     29 CA        -30.1517   50.1834   35.2990 C.3         1 MOL       0.1461
     30 CH3       -28.5861   50.1050   35.2416 C.3         1 MOL      -0.0287
     31 C         -30.5256   51.5703   35.6657 C.2         1 MOL       0.2294
     32 O         -31.3319   52.1952   34.9765 O.2         1 MOL      -0.3416
     33 CB        -30.7508   49.7590   33.8945 C.3         1 MOL       0.0325
     34 CG        -30.3280   48.4582   33.2896 C.ar        1 MOL      -0.0034
     35 CD1       -29.0955   48.3533   32.5988 C.ar        1 MOL      -0.0242
     36 CD2       -31.1907   47.3373   33.2846 C.ar        1 MOL      -0.0242
     37 CE1       -28.7309   47.1633   31.9479 C.ar        1 MOL       0.0115
     38 CE2       -30.8303   46.1497   32.6199 C.ar        1 MOL       0.0115
     39 CZ        -29.6036   46.0587   31.9236 C.ar        1 MOL       0.1728
     40 OH        -29.1593   44.9149   31.3055 O.3         1 MOL      -0.2040
     41 P         -30.0347   44.3444   30.1541 P.3         1 MOL       0.1348
     42 O1P       -30.8682   43.2829   30.6618 O.co2       1 MOL      -0.6653
     43 O2P       -29.1550   43.7557   29.1734 O.co2       1 MOL      -0.6653
     44 O3P       -30.8466   45.3216   29.4650 O.co2       1 MOL      -0.6653
     45 N         -29.9986   52.1590   36.7335 N.am        1 MOL      -0.2663
     46 CA        -30.1360   53.5356   37.1197 C.3         1 MOL       0.1112
     47 C         -28.7936   54.1608   37.0334 C.2         1 MOL       0.0626
     48 O         -28.4039   54.8020   35.9013 O.co2       1 MOL      -0.5664
     49 CB        -30.7702   53.6604   38.5350 C.3         1 MOL       0.0720
     50 CG        -32.1624   53.2546   38.6491 C.2         1 MOL       0.1774
     51 OD1       -32.8350   52.9153   37.6785 O.2         1 MOL      -0.3971
     52 ND2       -32.7721   53.3293   39.8053 N.am        1 MOL      -0.3007
     53 OXT       -27.8976   54.0697   38.0456 O.co2       1 MOL      -0.5664
     54 H1        -28.7707   49.1732   44.4207 H           1 MOL       0.0566
     55 H2        -30.8086   48.0923   43.7077 H           1 MOL       0.0448
     56 H3        -32.3150   51.8131   42.4026 H           1 MOL       0.0451
     57 H4        -28.4710   51.5563   44.1049 H           1 MOL       0.0459
     58 H5        -33.8594   49.7628   42.9853 H           1 MOL       0.0774
     59 H6        -33.0919   48.1856   42.8689 H           1 MOL       0.0774
     60 H7        -30.9323   53.7243   42.6495 H           1 MOL       0.1718
     61 H8        -29.3827   53.6236   43.2794 H           1 MOL       0.1718
     62 H9        -33.4114   49.3208   38.6878 H           1 MOL       0.1902
     63 H10       -31.0507   47.6530   38.1832 H           1 MOL       0.0839
     64 H11       -33.8914   47.1663   37.1149 H           1 MOL       0.0584
     65 H12       -33.2643   46.3605   38.5321 H           1 MOL       0.0584
     66 H13       -30.7841   45.2900   38.1370 H           1 MOL       0.0703
     67 H14       -33.7997   45.7251   35.2127 H           1 MOL       0.0703
     68 H15       -29.7715   43.5484   36.8236 H           1 MOL       0.0736
     69 H16       -32.7843   43.9745   33.9191 H           1 MOL       0.0736
     70 H17       -29.8592   48.9149   36.8976 H           1 MOL       0.1842
     71 H18       -28.1969   50.7546   34.4519 H           1 MOL       0.0244
     72 H19       -28.2579   49.0806   35.0519 H           1 MOL       0.0244
     73 H20       -28.1334   50.4099   36.1873 H           1 MOL       0.0244
     74 H21       -30.5023   50.5305   33.1597 H           1 MOL       0.0549
     75 H22       -31.8420   49.7766   33.9589 H           1 MOL       0.0549
     76 H23       -28.4513   49.1460   32.5694 H           1 MOL       0.0703
     77 H24       -32.0915   47.3852   33.7634 H           1 MOL       0.0703
     78 H25       -27.8270   47.1059   31.4766 H           1 MOL       0.0736
     79 H26       -31.4733   45.3546   32.6247 H           1 MOL       0.0736
     80 H27       -29.4093   51.6183   37.2853 H           1 MOL       0.1883
     81 H28       -30.7795   54.0866   36.4272 H           1 MOL       0.0754
     82 H29       -30.7059   54.7084   38.8500 H           1 MOL       0.0544
     83 H30       -30.1823   53.0658   39.2416 H           1 MOL       0.0544
     84 H31       -33.7134   53.0944   39.8754 H           1 MOL       0.1814
     85 H32       -32.2891   53.6333   40.5965 H           1 MOL       0.1814
@<TRIPOS>BOND
     1     1     5  ar
     2     2     1  ar
     3     3     2  ar
     4     6     3   1
     5     3     4  ar
     6     4    11  ar
     7    11    10   1
     8    11     5  ar
     9     7     6   1
    10     8     7   1
    11     8     9   2
    12    13    12   1
    13    13    16   1
    14    14    13   1
    15    14    15   2
    16    16    17   1
    17    17    19  ar
    18    17    18  ar
    19    18    20  ar
    20    20    22  ar
    21    22    23   1
    22    21    22  ar
    23    19    21  ar
    24    23    24   1
    25    24    27  ar
    26    24    26  ar
    27    24    25  ar
    28    29    28   1
    29    29    33   1
    30    31    29   1
    31    29    30   1
    32    31    32   2
    33    33    34   1
    34    34    36  ar
    35    34    35  ar
    36    35    37  ar
    37    37    39  ar
    38    39    40   1
    39    38    39  ar
    40    36    38  ar
    41    40    41   1
    42    41    44  ar
    43    41    43  ar
    44    41    42  ar
    45    46    47   1
    46    46    49   1
    47    45    46   1
    48    49    50   1
    49    50    51   2
    50    50    52  am
    51    47    53  ar
    52    47    48  ar
    53    28    14  am
    54    12     8  am
    55    31    45  am
    56     1    54   1
    57     2    55   1
    58     4    56   1
    59     5    57   1
    60     6    58   1
    61     6    59   1
    62    10    60   1
    63    10    61   1
    64    12    62   1
    65    13    63   1
    66    16    64   1
    67    16    65   1
    68    18    66   1
    69    19    67   1
    70    20    68   1
    71    21    69   1
    72    28    70   1
    73    30    71   1
    74    30    72   1
    75    30    73   1
    76    33    74   1
    77    33    75   1
    78    35    76   1
    79    36    77   1
    80    37    78   1
    81    38    79   1
    82    45    80   1
    83    46    81   1
    84    49    82   1
    85    49    83   1
    86    52    84   1
    87    52    85   1
@<TRIPOS>SUBSTRUCTURE
     1  MOL      1

