@<TRIPOS>MOLECULE
1jyq_ligand_046
    85    87
SMALL
GAST_HUCK
****
This file was generated by PARSER (from files_GN.cpp)

@<TRIPOS>ATOM
      1 C1        -30.8374   42.5420   38.3295 C.ar        1 MOL      -0.0801
      2 C2        -30.0976   43.0103   37.2290 C.ar        1 MOL      -0.0711
      3 C3        -28.7709   43.4759   37.3952 C.ar        1 MOL      -0.0250
      4 C4        -28.2026   43.4573   38.6902 C.ar        1 MOL      -0.0414
      5 C6        -30.2614   42.5296   39.6111 C.ar        1 MOL      -0.0516
      6 C12       -28.0012   43.9319   36.2104 C.3         1 MOL       0.1084
      7 O13       -28.6281   45.0761   35.6102 O.3         1 MOL      -0.2508
      8 C16       -28.2347   46.3770   35.6472 C.2         1 MOL       0.3241
      9 O18       -27.1416   46.7529   36.3559 O.2         1 MOL      -0.3773
     10 N11       -28.3979   42.9710   41.0268 N.pl3       1 MOL      -0.3383
     11 C5        -28.9418   42.9850   39.7981 C.ar        1 MOL       0.0282
     12 N         -28.9705   47.2732   34.9486 N.am        1 MOL      -0.2380
     13 CA        -28.7079   48.6818   34.8308 C.3         1 MOL       0.1484
     14 C         -29.6788   49.4205   35.6379 C.2         1 MOL       0.2046
     15 O         -30.5799   50.0508   35.0987 O.2         1 MOL      -0.3944
     16 CB        -28.6735   49.0837   33.3192 C.3         1 MOL       0.0400
     17 CG        -27.6292   48.4126   32.4894 C.ar        1 MOL      -0.0004
     18 CD1       -27.9823   47.6611   31.3427 C.ar        1 MOL      -0.0239
     19 CD2       -26.2547   48.5855   32.7803 C.ar        1 MOL      -0.0239
     20 CE1       -26.9914   47.0981   30.5186 C.ar        1 MOL       0.0115
     21 CE2       -25.2657   48.0116   31.9649 C.ar        1 MOL       0.0115
     22 CZ        -25.6244   47.2891   30.8130 C.ar        1 MOL       0.1728
     23 OH        -24.6483   46.7462   30.0237 O.3         1 MOL      -0.2040
     24 P         -24.4079   47.4824   28.6654 P.3         1 MOL       0.1348
     25 O1P       -23.0332   47.9110   28.5793 O.co2       1 MOL      -0.6653
     26 O2P       -25.2488   48.6166   28.3584 O.co2       1 MOL      -0.6653
     27 O3P       -24.5926   46.5289   27.6001 O.co2       1 MOL      -0.6653
     28 N         -29.4993   49.4914   36.9575 N.am        1 MOL      -0.2712
     29 CA        -30.2055   50.2985   37.9340 C.3         1 MOL       0.1461
     30 CH3       -31.7527   50.0494   37.7924 C.3         1 MOL      -0.0287
     31 C         -29.7988   51.7049   37.7489 C.2         1 MOL       0.2294
     32 O         -30.6456   52.5587   37.5119 O.2         1 MOL      -0.3416
     33 CB        -29.7535   49.7653   39.3537 C.3         1 MOL       0.0325
     34 CG        -30.3083   50.4904   40.5428 C.ar        1 MOL      -0.0034
     35 CD1       -31.3612   49.9316   41.3099 C.ar        1 MOL      -0.0242
     36 CD2       -29.7893   51.7491   40.9326 C.ar        1 MOL      -0.0242
     37 CE1       -31.9124   50.6371   42.3964 C.ar        1 MOL       0.0115
     38 CE2       -30.3423   52.4552   42.0159 C.ar        1 MOL       0.0115
     39 CZ        -31.4303   51.9214   42.7351 C.ar        1 MOL       0.1728
     40 OH        -31.9381   52.6080   43.8080 O.3         1 MOL      -0.2040
     41 P         -33.1271   53.5439   43.4444 P.3         1 MOL       0.1348
     42 O1P       -32.7796   54.5218   42.4366 O.co2       1 MOL      -0.6653
     43 O2P       -33.4988   54.2567   44.6430 O.co2       1 MOL      -0.6653
     44 O3P       -34.2904   52.7946   43.0272 O.co2       1 MOL      -0.6653
     45 N         -28.5117   52.0297   37.8555 N.am        1 MOL      -0.2663
     46 CA        -27.8306   53.2981   37.7829 C.3         1 MOL       0.1112
     47 C         -28.6595   54.4673   37.4199 C.2         1 MOL       0.0626
     48 O         -28.9062   54.7765   36.1306 O.co2       1 MOL      -0.5664
     49 CB        -26.5063   53.2104   36.9393 C.3         1 MOL       0.0720
     50 CG        -26.4071   52.0678   36.0440 C.2         1 MOL       0.1774
     51 OD1       -25.9205   51.0135   36.4311 O.2         1 MOL      -0.3971
     52 ND2       -26.8715   52.1052   34.8195 N.am        1 MOL      -0.3007
     53 OXT       -29.2552   55.2150   38.3769 O.co2       1 MOL      -0.5664
     54 H1        -31.7967   42.2128   38.1986 H           1 MOL       0.0566
     55 H2        -30.5308   43.0032   36.3007 H           1 MOL       0.0448
     56 H3        -27.2443   43.7808   38.8356 H           1 MOL       0.0451
     57 H4        -30.8074   42.1910   40.4067 H           1 MOL       0.0459
     58 H5        -27.9800   43.1291   35.4720 H           1 MOL       0.0774
     59 H6        -26.9602   44.1478   36.4722 H           1 MOL       0.0774
     60 H7        -27.4935   43.2957   41.1658 H           1 MOL       0.1718
     61 H8        -28.9120   42.6442   41.7839 H           1 MOL       0.1718
     62 H9        -29.7496   46.9342   34.4806 H           1 MOL       0.1902
     63 H10       -27.7354   48.9348   35.2551 H           1 MOL       0.0839
     64 H11       -28.4871   50.1611   33.2454 H           1 MOL       0.0584
     65 H12       -29.6710   48.9102   32.8966 H           1 MOL       0.0584
     66 H13       -28.9617   47.5395   31.0830 H           1 MOL       0.0703
     67 H14       -25.9547   49.1337   33.5880 H           1 MOL       0.0703
     68 H15       -27.2673   46.5768   29.6796 H           1 MOL       0.0736
     69 H16       -24.2747   48.1310   32.2030 H           1 MOL       0.0736
     70 H17       -28.7578   48.9666   37.3049 H           1 MOL       0.1842
     71 H18       -32.3084   50.5554   38.5892 H           1 MOL       0.0244
     72 H19       -31.9735   48.9810   37.8461 H           1 MOL       0.0244
     73 H20       -32.1354   50.4280   36.8419 H           1 MOL       0.0244
     74 H21       -28.6617   49.7809   39.4384 H           1 MOL       0.0549
     75 H22       -30.0247   48.7060   39.4196 H           1 MOL       0.0549
     76 H23       -31.7522   49.0207   41.0645 H           1 MOL       0.0703
     77 H24       -29.0078   52.1676   40.4287 H           1 MOL       0.0703
     78 H25       -32.6771   50.2246   42.9302 H           1 MOL       0.0736
     79 H26       -29.9581   53.3699   42.2669 H           1 MOL       0.0736
     80 H27       -27.9285   51.2836   38.0516 H           1 MOL       0.1883
     81 H28       -27.5123   53.4876   38.8114 H           1 MOL       0.0754
     82 H29       -25.6607   53.1695   37.6341 H           1 MOL       0.0544
     83 H30       -26.3470   54.1164   36.3473 H           1 MOL       0.0544
     84 H31       -26.8092   51.3158   34.2607 H           1 MOL       0.1814
     85 H32       -27.2455   52.9244   34.4606 H           1 MOL       0.1814
@<TRIPOS>BOND
     1     1     5  ar
     2     2     1  ar
     3     3     2  ar
     4     6     3   1
     5     3     4  ar
     6     4    11  ar
     7    11    10   1
     8    11     5  ar
     9     7     6   1
    10     8     7   1
    11     8     9   2
    12    13    12   1
    13    13    16   1
    14    14    13   1
    15    14    15   2
    16    16    17   1
    17    17    19  ar
    18    17    18  ar
    19    18    20  ar
    20    20    22  ar
    21    22    23   1
    22    21    22  ar
    23    19    21  ar
    24    23    24   1
    25    24    27  ar
    26    24    26  ar
    27    24    25  ar
    28    29    28   1
    29    29    33   1
    30    31    29   1
    31    29    30   1
    32    31    32   2
    33    33    34   1
    34    34    36  ar
    35    34    35  ar
    36    35    37  ar
    37    37    39  ar
    38    39    40   1
    39    38    39  ar
    40    36    38  ar
    41    40    41   1
    42    41    44  ar
    43    41    43  ar
    44    41    42  ar
    45    46    47   1
    46    46    49   1
    47    45    46   1
    48    49    50   1
    49    50    51   2
    50    50    52  am
    51    47    53  ar
    52    47    48  ar
    53    28    14  am
    54    12     8  am
    55    31    45  am
    56     1    54   1
    57     2    55   1
    58     4    56   1
    59     5    57   1
    60     6    58   1
    61     6    59   1
    62    10    60   1
    63    10    61   1
    64    12    62   1
    65    13    63   1
    66    16    64   1
    67    16    65   1
    68    18    66   1
    69    19    67   1
    70    20    68   1
    71    21    69   1
    72    28    70   1
    73    30    71   1
    74    30    72   1
    75    30    73   1
    76    33    74   1
    77    33    75   1
    78    35    76   1
    79    36    77   1
    80    37    78   1
    81    38    79   1
    82    45    80   1
    83    46    81   1
    84    49    82   1
    85    49    83   1
    86    52    84   1
    87    52    85   1
@<TRIPOS>SUBSTRUCTURE
     1  MOL      1

