@<TRIPOS>MOLECULE
1jyq_ligand_030
    85    87
SMALL
GAST_HUCK
****
This file was generated by PARSER (from files_GN.cpp)

@<TRIPOS>ATOM
      1 C1        -30.8266   39.3874   37.6642 C.ar        1 MOL      -0.0801
      2 C2        -31.0224   40.7785   37.7435 C.ar        1 MOL      -0.0711
      3 C3        -31.2648   41.5404   36.5772 C.ar        1 MOL      -0.0250
      4 C4        -31.3359   40.8681   35.3324 C.ar        1 MOL      -0.0414
      5 C6        -30.8468   38.7389   36.4147 C.ar        1 MOL      -0.0516
      6 C12       -31.4354   43.0174   36.6661 C.3         1 MOL       0.1084
      7 O13       -30.8840   43.6979   35.5277 O.3         1 MOL      -0.2508
      8 C16       -29.6138   43.5905   35.0522 C.2         1 MOL       0.3241
      9 O18       -28.7004   42.8227   35.7080 O.2         1 MOL      -0.3773
     10 N11       -31.1246   38.8617   34.0495 N.pl3       1 MOL      -0.3383
     11 C5        -31.1041   39.4794   35.2444 C.ar        1 MOL       0.0282
     12 N         -29.4007   44.1079   33.8205 N.am        1 MOL      -0.2380
     13 CA        -28.2593   43.9594   32.9526 C.3         1 MOL       0.1484
     14 C         -27.7603   42.5770   32.9222 C.2         1 MOL       0.2046
     15 O         -27.3020   42.0849   33.9477 O.2         1 MOL      -0.3944
     16 CB        -27.1496   45.0421   33.2047 C.3         1 MOL       0.0400
     17 CG        -27.1431   46.1235   32.1782 C.ar        1 MOL      -0.0004
     18 CD1       -26.5081   45.9073   30.9328 C.ar        1 MOL      -0.0239
     19 CD2       -27.8217   47.3465   32.3881 C.ar        1 MOL      -0.0239
     20 CE1       -26.5452   46.8918   29.9246 C.ar        1 MOL       0.0115
     21 CE2       -27.8500   48.3310   31.3855 C.ar        1 MOL       0.0115
     22 CZ        -27.1932   48.1248   30.1554 C.ar        1 MOL       0.1728
     23 OH        -27.2911   49.0832   29.1786 O.3         1 MOL      -0.2040
     24 P         -25.9982   49.9200   28.9456 P.3         1 MOL       0.1348
     25 O1P       -25.0228   49.1589   28.2017 O.co2       1 MOL      -0.6653
     26 O2P       -25.4005   50.4281   30.1580 O.co2       1 MOL      -0.6653
     27 O3P       -26.3464   51.0540   28.1254 O.co2       1 MOL      -0.6653
     28 N         -27.7750   41.8738   31.7873 N.am        1 MOL      -0.2712
     29 CA        -27.3386   40.5086   31.5604 C.3         1 MOL       0.1461
     30 CH3       -28.0474   39.5816   32.6077 C.3         1 MOL      -0.0287
     31 C         -25.8710   40.3694   31.6668 C.2         1 MOL       0.2294
     32 O         -25.1405   41.3512   31.7527 O.2         1 MOL      -0.3416
     33 CB        -27.7644   40.1436   30.0827 C.3         1 MOL       0.0325
     34 CG        -29.2301   40.1753   29.7925 C.ar        1 MOL      -0.0034
     35 CD1       -30.0405   39.0515   30.0843 C.ar        1 MOL      -0.0242
     36 CD2       -29.8362   41.3053   29.1975 C.ar        1 MOL      -0.0242
     37 CE1       -31.4258   39.0766   29.8399 C.ar        1 MOL       0.0115
     38 CE2       -31.2199   41.3316   28.9490 C.ar        1 MOL       0.0115
     39 CZ        -32.0310   40.2309   29.3008 C.ar        1 MOL       0.1728
     40 OH        -33.3752   40.2638   29.0376 O.3         1 MOL      -0.2040
     41 P         -34.2406   40.7820   30.2246 P.3         1 MOL       0.1348
     42 O1P       -34.2595   39.8549   31.3315 O.co2       1 MOL      -0.6653
     43 O2P       -35.6005   40.9054   29.7545 O.co2       1 MOL      -0.6653
     44 O3P       -33.8372   42.0883   30.6902 O.co2       1 MOL      -0.6653
     45 N         -25.3282   39.1570   31.6311 N.am        1 MOL      -0.2663
     46 CA        -23.9461   38.7763   31.7117 C.3         1 MOL       0.1112
     47 C         -23.3894   38.8188   33.0859 C.2         1 MOL       0.0626
     48 O         -24.1325   39.1688   34.1586 O.co2       1 MOL      -0.5664
     49 CB        -23.0040   39.4890   30.6945 C.3         1 MOL       0.0720
     50 CG        -23.4019   39.3124   29.3087 C.2         1 MOL       0.1774
     51 OD1       -23.3715   40.2478   28.5226 O.2         1 MOL      -0.3971
     52 ND2       -23.7858   38.1409   28.8543 N.am        1 MOL      -0.3007
     53 OXT       -22.2158   38.1924   33.3282 O.co2       1 MOL      -0.5664
     54 H1        -30.6579   38.8413   38.5133 H           1 MOL       0.0566
     55 H2        -30.9851   41.2287   38.6587 H           1 MOL       0.0448
     56 H3        -31.5385   41.3890   34.4777 H           1 MOL       0.0451
     57 H4        -30.6857   37.7288   36.3642 H           1 MOL       0.0459
     58 H5        -30.9788   43.4249   37.5737 H           1 MOL       0.0774
     59 H6        -32.5001   43.2376   36.7047 H           1 MOL       0.0774
     60 H7        -31.2977   39.3716   33.2415 H           1 MOL       0.1718
     61 H8        -30.9449   37.9087   33.9897 H           1 MOL       0.1718
     62 H9        -30.1635   44.5731   33.4333 H           1 MOL       0.1902
     63 H10       -28.6882   44.1562   31.9616 H           1 MOL       0.0839
     64 H11       -26.1569   44.5845   33.2139 H           1 MOL       0.0584
     65 H12       -27.2800   45.4680   34.2041 H           1 MOL       0.0584
     66 H13       -26.0267   45.0251   30.7454 H           1 MOL       0.0703
     67 H14       -28.3201   47.5173   33.2636 H           1 MOL       0.0703
     68 H15       -26.0984   46.7071   29.0241 H           1 MOL       0.0736
     69 H16       -28.3590   49.2022   31.5426 H           1 MOL       0.0736
     70 H17       -28.1373   42.3413   31.0191 H           1 MOL       0.1842
     71 H18       -27.9317   38.5279   32.3399 H           1 MOL       0.0244
     72 H19       -29.1162   39.8039   32.6613 H           1 MOL       0.0244
     73 H20       -27.6358   39.7100   33.6051 H           1 MOL       0.0244
     74 H21       -27.3951   39.1449   29.8281 H           1 MOL       0.0549
     75 H22       -27.2521   40.8247   29.3967 H           1 MOL       0.0549
     76 H23       -29.6299   38.2061   30.4864 H           1 MOL       0.0703
     77 H24       -29.2746   42.1201   28.9422 H           1 MOL       0.0703
     78 H25       -31.9934   38.2585   30.0643 H           1 MOL       0.0736
     79 H26       -31.6431   42.1542   28.5191 H           1 MOL       0.0736
     80 H27       -25.9500   38.4226   31.5213 H           1 MOL       0.1883
     81 H28       -23.9446   37.7188   31.4499 H           1 MOL       0.0754
     82 H29       -21.9934   39.0814   30.7975 H           1 MOL       0.0544
     83 H30       -22.9403   40.5543   30.9370 H           1 MOL       0.0544
     84 H31       -24.0344   38.0424   27.9189 H           1 MOL       0.1814
     85 H32       -23.8479   37.3790   29.4508 H           1 MOL       0.1814
@<TRIPOS>BOND
     1     1     5  ar
     2     2     1  ar
     3     3     2  ar
     4     6     3   1
     5     3     4  ar
     6     4    11  ar
     7    11    10   1
     8    11     5  ar
     9     7     6   1
    10     8     7   1
    11     8     9   2
    12    13    12   1
    13    13    16   1
    14    14    13   1
    15    14    15   2
    16    16    17   1
    17    17    19  ar
    18    17    18  ar
    19    18    20  ar
    20    20    22  ar
    21    22    23   1
    22    21    22  ar
    23    19    21  ar
    24    23    24   1
    25    24    27  ar
    26    24    26  ar
    27    24    25  ar
    28    29    28   1
    29    29    33   1
    30    31    29   1
    31    29    30   1
    32    31    32   2
    33    33    34   1
    34    34    36  ar
    35    34    35  ar
    36    35    37  ar
    37    37    39  ar
    38    39    40   1
    39    38    39  ar
    40    36    38  ar
    41    40    41   1
    42    41    44  ar
    43    41    43  ar
    44    41    42  ar
    45    46    47   1
    46    46    49   1
    47    45    46   1
    48    49    50   1
    49    50    51   2
    50    50    52  am
    51    47    53  ar
    52    47    48  ar
    53    28    14  am
    54    12     8  am
    55    31    45  am
    56     1    54   1
    57     2    55   1
    58     4    56   1
    59     5    57   1
    60     6    58   1
    61     6    59   1
    62    10    60   1
    63    10    61   1
    64    12    62   1
    65    13    63   1
    66    16    64   1
    67    16    65   1
    68    18    66   1
    69    19    67   1
    70    20    68   1
    71    21    69   1
    72    28    70   1
    73    30    71   1
    74    30    72   1
    75    30    73   1
    76    33    74   1
    77    33    75   1
    78    35    76   1
    79    36    77   1
    80    37    78   1
    81    38    79   1
    82    45    80   1
    83    46    81   1
    84    49    82   1
    85    49    83   1
    86    52    84   1
    87    52    85   1
@<TRIPOS>SUBSTRUCTURE
     1  MOL      1

