@<TRIPOS>MOLECULE
1jyq_ligand_033
    85    87
SMALL
GAST_HUCK
****
This file was generated by PARSER (from files_GN.cpp)

@<TRIPOS>ATOM
      1 C1        -29.7519   50.0341   43.7914 C.ar        1 MOL      -0.0801
      2 C2        -30.7224   49.2345   43.1592 C.ar        1 MOL      -0.0711
      3 C3        -31.0995   49.4700   41.8170 C.ar        1 MOL      -0.0250
      4 C4        -30.5007   50.5532   41.1325 C.ar        1 MOL      -0.0414
      5 C6        -29.1547   51.1003   43.0908 C.ar        1 MOL      -0.0516
      6 C12       -32.0909   48.5659   41.1731 C.3         1 MOL       0.1084
      7 O13       -32.0502   48.6430   39.7422 O.3         1 MOL      -0.2508
      8 C16       -31.5886   47.7339   38.8411 C.2         1 MOL       0.3241
      9 O18       -31.0963   46.5315   39.2341 O.2         1 MOL      -0.3773
     10 N11       -28.9833   52.3926   41.0944 N.pl3       1 MOL      -0.3383
     11 C5        -29.5334   51.3656   41.7625 C.ar        1 MOL       0.0282
     12 N         -31.5747   48.1366   37.5573 N.am        1 MOL      -0.2380
     13 CA        -31.0572   47.4218   36.4260 C.3         1 MOL       0.1484
     14 C         -29.9341   48.1930   35.9049 C.2         1 MOL       0.2046
     15 O         -30.0067   48.7121   34.7893 O.2         1 MOL      -0.3944
     16 CB        -32.2630   47.1490   35.4627 C.3         1 MOL       0.0400
     17 CG        -31.8704   46.9346   34.0396 C.ar        1 MOL      -0.0004
     18 CD1       -31.1679   45.7692   33.6472 C.ar        1 MOL      -0.0239
     19 CD2       -32.1440   47.9188   33.0603 C.ar        1 MOL      -0.0239
     20 CE1       -30.6993   45.6233   32.3274 C.ar        1 MOL       0.0115
     21 CE2       -31.6692   47.7759   31.7410 C.ar        1 MOL       0.0115
     22 CZ        -30.9099   46.6484   31.3772 C.ar        1 MOL       0.1728
     23 OH        -30.4251   46.5387   30.1024 O.3         1 MOL      -0.2040
     24 P         -28.8956   46.8200   29.9950 P.3         1 MOL       0.1348
     25 O1P       -28.4337   46.3900   28.6952 O.co2       1 MOL      -0.6653
     26 O2P       -28.1384   46.0802   30.9742 O.co2       1 MOL      -0.6653
     27 O3P       -28.5692   48.2236   30.1076 O.co2       1 MOL      -0.6653
     28 N         -28.8518   48.3732   36.6556 N.am        1 MOL      -0.2712
     29 CA        -27.5998   49.0209   36.2972 C.3         1 MOL       0.1461
     30 CH3       -26.7152   49.0603   37.5770 C.3         1 MOL      -0.0287
     31 C         -27.8286   50.4286   35.8877 C.2         1 MOL       0.2294
     32 O         -27.5113   50.8071   34.7608 O.2         1 MOL      -0.3416
     33 CB        -26.9160   48.1523   35.1611 C.3         1 MOL       0.0325
     34 CG        -27.2388   46.6944   35.1402 C.ar        1 MOL      -0.0034
     35 CD1       -27.4073   45.9829   36.3482 C.ar        1 MOL      -0.0242
     36 CD2       -27.4020   45.9963   33.9215 C.ar        1 MOL      -0.0242
     37 CE1       -27.7347   44.6128   36.3364 C.ar        1 MOL       0.0115
     38 CE2       -27.7611   44.6336   33.9068 C.ar        1 MOL       0.0115
     39 CZ        -27.9040   43.9167   35.1198 C.ar        1 MOL       0.1728
     40 OH        -28.2570   42.5801   35.2019 O.3         1 MOL      -0.2040
     41 P         -28.8511   41.9169   33.9220 P.3         1 MOL       0.1348
     42 O1P       -30.0620   42.6052   33.5476 O.co2       1 MOL      -0.6653
     43 O2P       -29.2207   40.5613   34.2408 O.co2       1 MOL      -0.6653
     44 O3P       -27.9342   41.8935   32.8065 O.co2       1 MOL      -0.6653
     45 N         -28.4589   51.2628   36.7117 N.am        1 MOL      -0.2663
     46 CA        -29.0491   52.5225   36.3572 C.3         1 MOL       0.1112
     47 C         -28.1353   53.6658   36.6134 C.2         1 MOL       0.0626
     48 O         -28.1480   54.7581   35.8126 O.co2       1 MOL      -0.5664
     49 CB        -30.4092   52.6796   37.1051 C.3         1 MOL       0.0720
     50 CG        -31.0663   53.9680   36.9811 C.2         1 MOL       0.1774
     51 OD1       -30.8255   54.7400   36.0597 O.2         1 MOL      -0.3971
     52 ND2       -31.9844   54.3321   37.8530 N.am        1 MOL      -0.3007
     53 OXT       -27.3727   53.7107   37.7294 O.co2       1 MOL      -0.5664
     54 H1        -29.4757   49.8421   44.7587 H           1 MOL       0.0566
     55 H2        -31.1379   48.4620   43.6799 H           1 MOL       0.0448
     56 H3        -30.7675   50.7720   40.1682 H           1 MOL       0.0451
     57 H4        -28.4521   51.6795   43.5559 H           1 MOL       0.0459
     58 H5        -33.0925   48.8450   41.5007 H           1 MOL       0.0774
     59 H6        -31.9085   47.5376   41.4971 H           1 MOL       0.0774
     60 H7        -29.2589   52.5859   40.1862 H           1 MOL       0.1718
     61 H8        -28.3477   52.9713   41.5339 H           1 MOL       0.1718
     62 H9        -31.9080   49.0363   37.3866 H           1 MOL       0.1902
     63 H10       -30.6659   46.4421   36.7207 H           1 MOL       0.0839
     64 H11       -32.9679   47.9866   35.5370 H           1 MOL       0.0584
     65 H12       -32.8043   46.2596   35.8056 H           1 MOL       0.0584
     66 H13       -30.9737   45.0312   34.3295 H           1 MOL       0.0703
     67 H14       -32.6347   48.7800   33.3114 H           1 MOL       0.0703
     68 H15       -30.1635   44.7955   32.0695 H           1 MOL       0.0736
     69 H16       -31.8568   48.5101   31.0574 H           1 MOL       0.0736
     70 H17       -28.8831   47.9835   37.5445 H           1 MOL       0.1842
     71 H18       -25.7230   49.4679   37.3541 H           1 MOL       0.0244
     72 H19       -26.5922   48.0446   37.9790 H           1 MOL       0.0244
     73 H20       -27.1843   49.6847   38.3432 H           1 MOL       0.0244
     74 H21       -25.8295   48.2733   35.2196 H           1 MOL       0.0549
     75 H22       -27.2026   48.5659   34.1886 H           1 MOL       0.0549
     76 H23       -27.2872   46.4610   37.2426 H           1 MOL       0.0703
     77 H24       -27.2880   46.4824   33.0310 H           1 MOL       0.0703
     78 H25       -27.8308   44.1092   37.2186 H           1 MOL       0.0736
     79 H26       -27.8927   44.1667   33.0091 H           1 MOL       0.0736
     80 H27       -28.6855   50.9145   37.5899 H           1 MOL       0.1883
     81 H28       -29.2787   52.4831   35.2858 H           1 MOL       0.0754
     82 H29       -30.2532   52.4691   38.1655 H           1 MOL       0.0544
     83 H30       -31.1077   51.9298   36.7198 H           1 MOL       0.0544
     84 H31       -32.4225   55.1910   37.7669 H           1 MOL       0.1814
     85 H32       -32.2183   53.7411   38.5876 H           1 MOL       0.1814
@<TRIPOS>BOND
     1     1     5  ar
     2     2     1  ar
     3     3     2  ar
     4     6     3   1
     5     3     4  ar
     6     4    11  ar
     7    11    10   1
     8    11     5  ar
     9     7     6   1
    10     8     7   1
    11     8     9   2
    12    13    12   1
    13    13    16   1
    14    14    13   1
    15    14    15   2
    16    16    17   1
    17    17    19  ar
    18    17    18  ar
    19    18    20  ar
    20    20    22  ar
    21    22    23   1
    22    21    22  ar
    23    19    21  ar
    24    23    24   1
    25    24    27  ar
    26    24    26  ar
    27    24    25  ar
    28    29    28   1
    29    29    33   1
    30    31    29   1
    31    29    30   1
    32    31    32   2
    33    33    34   1
    34    34    36  ar
    35    34    35  ar
    36    35    37  ar
    37    37    39  ar
    38    39    40   1
    39    38    39  ar
    40    36    38  ar
    41    40    41   1
    42    41    44  ar
    43    41    43  ar
    44    41    42  ar
    45    46    47   1
    46    46    49   1
    47    45    46   1
    48    49    50   1
    49    50    51   2
    50    50    52  am
    51    47    53  ar
    52    47    48  ar
    53    28    14  am
    54    12     8  am
    55    31    45  am
    56     1    54   1
    57     2    55   1
    58     4    56   1
    59     5    57   1
    60     6    58   1
    61     6    59   1
    62    10    60   1
    63    10    61   1
    64    12    62   1
    65    13    63   1
    66    16    64   1
    67    16    65   1
    68    18    66   1
    69    19    67   1
    70    20    68   1
    71    21    69   1
    72    28    70   1
    73    30    71   1
    74    30    72   1
    75    30    73   1
    76    33    74   1
    77    33    75   1
    78    35    76   1
    79    36    77   1
    80    37    78   1
    81    38    79   1
    82    45    80   1
    83    46    81   1
    84    49    82   1
    85    49    83   1
    86    52    84   1
    87    52    85   1
@<TRIPOS>SUBSTRUCTURE
     1  MOL      1

