@<TRIPOS>MOLECULE
1jyq_ligand_052
    85    87
SMALL
GAST_HUCK
****
This file was generated by PARSER (from files_GN.cpp)

@<TRIPOS>ATOM
      1 C1        -23.6801   38.4066   29.8949 C.ar        1 MOL      -0.0801
      2 C2        -24.0289   38.8766   31.1757 C.ar        1 MOL      -0.0711
      3 C3        -25.1181   39.7631   31.3473 C.ar        1 MOL      -0.0250
      4 C4        -25.8558   40.1586   30.2061 C.ar        1 MOL      -0.0414
      5 C6        -24.4153   38.8171   28.7683 C.ar        1 MOL      -0.0516
      6 C12       -25.5412   40.1831   32.7107 C.3         1 MOL       0.1084
      7 O13       -26.1766   41.4674   32.7623 O.3         1 MOL      -0.2508
      8 C16       -25.6370   42.7009   32.6036 C.2         1 MOL       0.3241
      9 O18       -24.3108   42.8606   32.3715 O.2         1 MOL      -0.3773
     10 N11       -26.2181   40.0745   27.8463 N.pl3       1 MOL      -0.3383
     11 C5        -25.5076   39.6922   28.9224 C.ar        1 MOL       0.0282
     12 N         -26.4991   43.7434   32.6466 N.am        1 MOL      -0.2380
     13 CA        -26.1905   45.1314   32.4559 C.3         1 MOL       0.1484
     14 C         -26.9886   45.9444   33.3705 C.2         1 MOL       0.2046
     15 O         -28.1800   45.7016   33.4996 O.2         1 MOL      -0.3944
     16 CB        -26.3801   45.5518   30.9657 C.3         1 MOL       0.0400
     17 CG        -27.7410   45.3663   30.3809 C.ar        1 MOL      -0.0004
     18 CD1       -28.4885   46.4748   29.9164 C.ar        1 MOL      -0.0239
     19 CD2       -28.2861   44.0726   30.2160 C.ar        1 MOL      -0.0239
     20 CE1       -29.7578   46.2971   29.3388 C.ar        1 MOL       0.0115
     21 CE2       -29.5479   43.8901   29.6195 C.ar        1 MOL       0.0115
     22 CZ        -30.3066   45.0061   29.2019 C.ar        1 MOL       0.1728
     23 OH        -31.5192   44.8408   28.5876 O.3         1 MOL      -0.2040
     24 P         -32.7237   44.8324   29.5736 P.3         1 MOL       0.1348
     25 O1P       -33.9183   44.7381   28.7671 O.co2       1 MOL      -0.6653
     26 O2P       -32.8387   46.0547   30.3238 O.co2       1 MOL      -0.6653
     27 O3P       -32.7239   43.6829   30.4517 O.co2       1 MOL      -0.6653
     28 N         -26.4307   46.9702   34.0150 N.am        1 MOL      -0.2712
     29 CA        -26.9981   47.8936   34.9858 C.3         1 MOL       0.1461
     30 CH3       -27.3950   47.0188   36.2254 C.3         1 MOL      -0.0287
     31 C         -28.1617   48.6339   34.4519 C.2         1 MOL       0.2294
     32 O         -29.0087   49.0590   35.2288 O.2         1 MOL      -0.3416
     33 CB        -25.8361   48.9009   35.3372 C.3         1 MOL       0.0325
     34 CG        -26.1982   50.1752   36.0335 C.ar        1 MOL      -0.0034
     35 CD1       -26.6164   50.1885   37.3859 C.ar        1 MOL      -0.0242
     36 CD2       -26.1386   51.4104   35.3439 C.ar        1 MOL      -0.0242
     37 CE1       -27.0534   51.3762   37.9928 C.ar        1 MOL       0.0115
     38 CE2       -26.5599   52.6047   35.9525 C.ar        1 MOL       0.0115
     39 CZ        -27.0726   52.5853   37.2674 C.ar        1 MOL       0.1728
     40 OH        -27.5486   53.7453   37.8141 O.3         1 MOL      -0.2040
     41 P         -29.1056   53.8300   37.7736 P.3         1 MOL       0.1348
     42 O1P       -29.6402   53.6778   36.4450 O.co2       1 MOL      -0.6653
     43 O2P       -29.4780   55.1549   38.1997 O.co2       1 MOL      -0.6653
     44 O3P       -29.7399   52.8995   38.6748 O.co2       1 MOL      -0.6653
     45 N         -28.2557   48.9418   33.1591 N.am        1 MOL      -0.2663
     46 CA        -29.3590   49.5531   32.4616 C.3         1 MOL       0.1112
     47 C         -29.6638   50.9423   32.8849 C.2         1 MOL       0.0626
     48 O         -28.7415   51.7355   33.4777 O.co2       1 MOL      -0.5664
     49 CB        -30.6097   48.6148   32.3961 C.3         1 MOL       0.0720
     50 CG        -31.3495   48.4136   33.6308 C.2         1 MOL       0.1774
     51 OD1       -32.1477   49.2520   34.0141 O.2         1 MOL      -0.3971
     52 ND2       -31.2096   47.3227   34.3549 N.am        1 MOL      -0.3007
     53 OXT       -30.8372   51.5101   32.5182 O.co2       1 MOL      -0.5664
     54 H1        -22.9019   37.7569   29.7829 H           1 MOL       0.0566
     55 H2        -23.4956   38.5454   31.9838 H           1 MOL       0.0448
     56 H3        -26.6624   40.7799   30.3076 H           1 MOL       0.0451
     57 H4        -24.1567   38.4657   27.8428 H           1 MOL       0.0459
     58 H5        -24.7074   40.1742   33.4181 H           1 MOL       0.0774
     59 H6        -26.2750   39.4574   33.0630 H           1 MOL       0.0774
     60 H7        -26.9715   40.6752   27.9505 H           1 MOL       0.1718
     61 H8        -25.9780   39.7488   26.9651 H           1 MOL       0.1718
     62 H9        -27.4353   43.5168   32.7603 H           1 MOL       0.1902
     63 H10       -25.1287   45.2899   32.6922 H           1 MOL       0.0839
     64 H11       -25.6679   44.9850   30.3613 H           1 MOL       0.0584
     65 H12       -26.0769   46.5991   30.8758 H           1 MOL       0.0584
     66 H13       -28.1141   47.4245   29.9975 H           1 MOL       0.0703
     67 H14       -27.7572   43.2456   30.5004 H           1 MOL       0.0703
     68 H15       -30.2838   47.1134   29.0099 H           1 MOL       0.0736
     69 H16       -29.9121   42.9449   29.4828 H           1 MOL       0.0736
     70 H17       -25.4893   47.1116   33.8173 H           1 MOL       0.1842
     71 H18       -27.8513   47.6195   37.0099 H           1 MOL       0.0244
     72 H19       -26.5192   46.5253   36.6481 H           1 MOL       0.0244
     73 H20       -28.1136   46.2473   35.9438 H           1 MOL       0.0244
     74 H21       -25.3349   49.1642   34.3995 H           1 MOL       0.0549
     75 H22       -25.0769   48.3906   35.9343 H           1 MOL       0.0549
     76 H23       -26.6191   49.3278   37.9356 H           1 MOL       0.0703
     77 H24       -25.8155   51.4477   34.3724 H           1 MOL       0.0703
     78 H25       -27.3890   51.3587   38.9601 H           1 MOL       0.0736
     79 H26       -26.5355   53.4807   35.4257 H           1 MOL       0.0736
     80 H27       -27.5058   48.6758   32.6025 H           1 MOL       0.1883
     81 H28       -29.0166   49.6511   31.4307 H           1 MOL       0.0754
     82 H29       -30.2750   47.6433   32.0110 H           1 MOL       0.0544
     83 H30       -31.3061   49.0110   31.6508 H           1 MOL       0.0544
     84 H31       -31.7291   47.2108   35.1666 H           1 MOL       0.1814
     85 H32       -30.5824   46.6326   34.0863 H           1 MOL       0.1814
@<TRIPOS>BOND
     1     1     5  ar
     2     2     1  ar
     3     3     2  ar
     4     6     3   1
     5     3     4  ar
     6     4    11  ar
     7    11    10   1
     8    11     5  ar
     9     7     6   1
    10     8     7   1
    11     8     9   2
    12    13    12   1
    13    13    16   1
    14    14    13   1
    15    14    15   2
    16    16    17   1
    17    17    19  ar
    18    17    18  ar
    19    18    20  ar
    20    20    22  ar
    21    22    23   1
    22    21    22  ar
    23    19    21  ar
    24    23    24   1
    25    24    27  ar
    26    24    26  ar
    27    24    25  ar
    28    29    28   1
    29    29    33   1
    30    31    29   1
    31    29    30   1
    32    31    32   2
    33    33    34   1
    34    34    36  ar
    35    34    35  ar
    36    35    37  ar
    37    37    39  ar
    38    39    40   1
    39    38    39  ar
    40    36    38  ar
    41    40    41   1
    42    41    44  ar
    43    41    43  ar
    44    41    42  ar
    45    46    47   1
    46    46    49   1
    47    45    46   1
    48    49    50   1
    49    50    51   2
    50    50    52  am
    51    47    53  ar
    52    47    48  ar
    53    28    14  am
    54    12     8  am
    55    31    45  am
    56     1    54   1
    57     2    55   1
    58     4    56   1
    59     5    57   1
    60     6    58   1
    61     6    59   1
    62    10    60   1
    63    10    61   1
    64    12    62   1
    65    13    63   1
    66    16    64   1
    67    16    65   1
    68    18    66   1
    69    19    67   1
    70    20    68   1
    71    21    69   1
    72    28    70   1
    73    30    71   1
    74    30    72   1
    75    30    73   1
    76    33    74   1
    77    33    75   1
    78    35    76   1
    79    36    77   1
    80    37    78   1
    81    38    79   1
    82    45    80   1
    83    46    81   1
    84    49    82   1
    85    49    83   1
    86    52    84   1
    87    52    85   1
@<TRIPOS>SUBSTRUCTURE
     1  MOL      1

