@<TRIPOS>MOLECULE
1jyq_ligand_020
    85    87
SMALL
GAST_HUCK
****
This file was generated by PARSER (from files_GN.cpp)

@<TRIPOS>ATOM
      1 C1        -33.0428   52.2555   33.8001 C.ar        1 MOL      -0.0801
      2 C2        -33.6660   51.4623   34.7827 C.ar        1 MOL      -0.0711
      3 C3        -33.9217   50.0914   34.5431 C.ar        1 MOL      -0.0250
      4 C4        -33.5505   49.5385   33.2936 C.ar        1 MOL      -0.0414
      5 C6        -32.6755   51.6912   32.5653 C.ar        1 MOL      -0.0516
      6 C12       -34.5045   49.2136   35.5911 C.3         1 MOL       0.1084
      7 O13       -33.5838   48.1648   35.9009 O.3         1 MOL      -0.2508
      8 C16       -32.3536   48.3221   36.4581 C.2         1 MOL       0.3241
      9 O18       -31.9270   49.5401   36.8791 O.2         1 MOL      -0.3773
     10 N11       -32.5750   49.7832   31.1295 N.pl3       1 MOL      -0.3383
     11 C5        -32.9273   50.3297   32.3081 C.ar        1 MOL       0.0282
     12 N         -31.5428   47.2428   36.4590 N.am        1 MOL      -0.2380
     13 CA        -30.1580   47.2193   36.8464 C.3         1 MOL       0.1484
     14 C         -29.3463   48.2697   36.2257 C.2         1 MOL       0.2046
     15 O         -29.7882   48.8424   35.2434 O.2         1 MOL      -0.3944
     16 CB        -29.5531   45.8011   36.5828 C.3         1 MOL       0.0400
     17 CG        -29.5784   45.3586   35.1543 C.ar        1 MOL      -0.0004
     18 CD1       -30.6762   44.6327   34.6337 C.ar        1 MOL      -0.0239
     19 CD2       -28.5327   45.7139   34.2702 C.ar        1 MOL      -0.0239
     20 CE1       -30.7388   44.2956   33.2673 C.ar        1 MOL       0.0115
     21 CE2       -28.5873   45.3684   32.9088 C.ar        1 MOL       0.0115
     22 CZ        -29.6870   44.6462   32.3941 C.ar        1 MOL       0.1728
     23 OH        -29.7613   44.4049   31.0490 O.3         1 MOL      -0.2040
     24 P         -29.3455   42.9626   30.6258 P.3         1 MOL       0.1348
     25 O1P       -30.4768   42.0717   30.5880 O.co2       1 MOL      -0.6653
     26 O2P       -28.3145   42.4049   31.4687 O.co2       1 MOL      -0.6653
     27 O3P       -28.8084   43.0173   29.2889 O.co2       1 MOL      -0.6653
     28 N         -28.1476   48.5461   36.7273 N.am        1 MOL      -0.2712
     29 CA        -27.1489   49.5108   36.3097 C.3         1 MOL       0.1461
     30 CH3       -26.2046   49.6199   37.5600 C.3         1 MOL      -0.0287
     31 C         -27.6749   50.8758   36.1017 C.2         1 MOL       0.2294
     32 O         -27.1983   51.5456   35.1926 O.2         1 MOL      -0.3416
     33 CB        -26.2817   48.9211   35.1212 C.3         1 MOL       0.0325
     34 CG        -26.6543   48.9041   33.6685 C.ar        1 MOL      -0.0034
     35 CD1       -27.7096   49.6451   33.0817 C.ar        1 MOL      -0.0242
     36 CD2       -25.8007   48.1859   32.7892 C.ar        1 MOL      -0.0242
     37 CE1       -27.9007   49.6735   31.6852 C.ar        1 MOL       0.0115
     38 CE2       -25.9960   48.1960   31.3932 C.ar        1 MOL       0.0115
     39 CZ        -27.0509   48.9431   30.8295 C.ar        1 MOL       0.1728
     40 OH        -27.1701   49.1035   29.4736 O.3         1 MOL      -0.2040
     41 P         -28.2994   48.2587   28.8181 P.3         1 MOL       0.1348
     42 O1P       -28.7652   49.0221   27.6884 O.co2       1 MOL      -0.6653
     43 O2P       -29.4485   48.0264   29.6613 O.co2       1 MOL      -0.6653
     44 O3P       -27.8055   47.0295   28.2534 O.co2       1 MOL      -0.6653
     45 N         -28.4966   51.4539   36.9854 N.am        1 MOL      -0.2663
     46 CA        -29.1122   52.7531   36.8560 C.3         1 MOL       0.1112
     47 C         -28.1283   53.8580   36.7316 C.2         1 MOL       0.0626
     48 O         -28.2134   54.7608   35.7329 O.co2       1 MOL      -0.5664
     49 CB        -30.1547   53.0325   37.9870 C.3         1 MOL       0.0720
     50 CG        -29.7314   53.9180   39.0623 C.2         1 MOL       0.1774
     51 OD1       -29.7547   55.1330   38.8949 O.2         1 MOL      -0.3971
     52 ND2       -29.2594   53.4603   40.2042 N.am        1 MOL      -0.3007
     53 OXT       -27.0619   53.9152   37.5595 O.co2       1 MOL      -0.5664
     54 H1        -32.8510   53.2413   33.9862 H           1 MOL       0.0566
     55 H2        -33.9146   51.8884   35.6763 H           1 MOL       0.0448
     56 H3        -33.7258   48.5468   33.1056 H           1 MOL       0.0451
     57 H4        -32.2294   52.2786   31.8568 H           1 MOL       0.0459
     58 H5        -35.4237   48.7642   35.2098 H           1 MOL       0.0774
     59 H6        -34.7552   49.7596   36.5026 H           1 MOL       0.0774
     60 H7        -32.7572   48.8454   30.9539 H           1 MOL       0.1718
     61 H8        -32.1490   50.3256   30.4465 H           1 MOL       0.1718
     62 H9        -31.9326   46.4139   36.1407 H           1 MOL       0.1902
     63 H10       -30.1583   47.3771   37.9281 H           1 MOL       0.0839
     64 H11       -30.0796   45.0567   37.1878 H           1 MOL       0.0584
     65 H12       -28.5204   45.8069   36.9501 H           1 MOL       0.0584
     66 H13       -31.4462   44.3474   35.2424 H           1 MOL       0.0703
     67 H14       -27.7301   46.2503   34.6087 H           1 MOL       0.0703
     68 H15       -31.5536   43.7901   32.9094 H           1 MOL       0.0736
     69 H16       -27.8252   45.6477   32.2871 H           1 MOL       0.0736
     70 H17       -27.9026   48.0041   37.4979 H           1 MOL       0.1842
     71 H18       -25.4206   50.3705   37.4065 H           1 MOL       0.0244
     72 H19       -25.7112   48.6600   37.7546 H           1 MOL       0.0244
     73 H20       -26.7646   49.8956   38.4611 H           1 MOL       0.0244
     74 H21       -26.0738   47.8799   35.3945 H           1 MOL       0.0549
     75 H22       -25.3137   49.4333   35.1375 H           1 MOL       0.0549
     76 H23       -28.3367   50.2162   33.6453 H           1 MOL       0.0703
     77 H24       -24.9992   47.6646   33.1620 H           1 MOL       0.0703
     78 H25       -28.6417   50.2576   31.2870 H           1 MOL       0.0736
     79 H26       -25.3507   47.6874   30.7883 H           1 MOL       0.0736
     80 H27       -28.7639   50.9211   37.7530 H           1 MOL       0.1883
     81 H28       -29.6822   52.7098   35.9219 H           1 MOL       0.0754
     82 H29       -30.4875   52.0859   38.4216 H           1 MOL       0.0544
     83 H30       -31.0490   53.4735   37.5253 H           1 MOL       0.0544
     84 H31       -28.9424   54.0788   40.8841 H           1 MOL       0.1814
     85 H32       -29.2195   52.5048   40.3642 H           1 MOL       0.1814
@<TRIPOS>BOND
     1     1     5  ar
     2     2     1  ar
     3     3     2  ar
     4     6     3   1
     5     3     4  ar
     6     4    11  ar
     7    11    10   1
     8    11     5  ar
     9     7     6   1
    10     8     7   1
    11     8     9   2
    12    13    12   1
    13    13    16   1
    14    14    13   1
    15    14    15   2
    16    16    17   1
    17    17    19  ar
    18    17    18  ar
    19    18    20  ar
    20    20    22  ar
    21    22    23   1
    22    21    22  ar
    23    19    21  ar
    24    23    24   1
    25    24    27  ar
    26    24    26  ar
    27    24    25  ar
    28    29    28   1
    29    29    33   1
    30    31    29   1
    31    29    30   1
    32    31    32   2
    33    33    34   1
    34    34    36  ar
    35    34    35  ar
    36    35    37  ar
    37    37    39  ar
    38    39    40   1
    39    38    39  ar
    40    36    38  ar
    41    40    41   1
    42    41    44  ar
    43    41    43  ar
    44    41    42  ar
    45    46    47   1
    46    46    49   1
    47    45    46   1
    48    49    50   1
    49    50    51   2
    50    50    52  am
    51    47    53  ar
    52    47    48  ar
    53    28    14  am
    54    12     8  am
    55    31    45  am
    56     1    54   1
    57     2    55   1
    58     4    56   1
    59     5    57   1
    60     6    58   1
    61     6    59   1
    62    10    60   1
    63    10    61   1
    64    12    62   1
    65    13    63   1
    66    16    64   1
    67    16    65   1
    68    18    66   1
    69    19    67   1
    70    20    68   1
    71    21    69   1
    72    28    70   1
    73    30    71   1
    74    30    72   1
    75    30    73   1
    76    33    74   1
    77    33    75   1
    78    35    76   1
    79    36    77   1
    80    37    78   1
    81    38    79   1
    82    45    80   1
    83    46    81   1
    84    49    82   1
    85    49    83   1
    86    52    84   1
    87    52    85   1
@<TRIPOS>SUBSTRUCTURE
     1  MOL      1

