@<TRIPOS>MOLECULE
1jyq_ligand_008
    85    87
SMALL
GAST_HUCK
****
This file was generated by PARSER (from files_GN.cpp)

@<TRIPOS>ATOM
      1 C1        -29.9470   49.8923   43.3601 C.ar        1 MOL      -0.0801
      2 C2        -31.1692   49.3992   42.8695 C.ar        1 MOL      -0.0711
      3 C3        -31.8534   50.0775   41.8325 C.ar        1 MOL      -0.0250
      4 C4        -31.2874   51.2608   41.3019 C.ar        1 MOL      -0.0414
      5 C6        -29.3917   51.0675   42.8203 C.ar        1 MOL      -0.0516
      6 C12       -33.1227   49.5487   41.2714 C.3         1 MOL       0.1084
      7 O13       -32.9591   49.1098   39.9200 O.3         1 MOL      -0.2508
      8 C16       -32.1087   48.1466   39.4697 C.2         1 MOL       0.3241
      9 O18       -31.3125   47.4694   40.3304 O.2         1 MOL      -0.3773
     10 N11       -29.5372   52.8857   41.2827 N.pl3       1 MOL      -0.3383
     11 C5        -30.0604   51.7559   41.7899 C.ar        1 MOL       0.0282
     12 N         -32.0735   47.9428   38.1360 N.am        1 MOL      -0.2380
     13 CA        -31.2062   47.0433   37.4294 C.3         1 MOL       0.1484
     14 C         -30.3081   47.8175   36.5703 C.2         1 MOL       0.2046
     15 O         -30.7518   48.2610   35.5164 O.2         1 MOL      -0.3944
     16 CB        -32.0984   46.0497   36.6144 C.3         1 MOL       0.0400
     17 CG        -31.3391   45.1901   35.6625 C.ar        1 MOL      -0.0004
     18 CD1       -30.7887   43.9531   36.0863 C.ar        1 MOL      -0.0239
     19 CD2       -31.1533   45.5746   34.3112 C.ar        1 MOL      -0.0239
     20 CE1       -30.0533   43.1468   35.1958 C.ar        1 MOL       0.0115
     21 CE2       -30.4060   44.7783   33.4258 C.ar        1 MOL       0.0115
     22 CZ        -29.8240   43.5675   33.8631 C.ar        1 MOL       0.1728
     23 OH        -29.1589   42.7836   32.9576 O.3         1 MOL      -0.2040
     24 P         -27.6162   42.9855   32.9411 P.3         1 MOL       0.1348
     25 O1P       -27.1125   42.3448   31.7500 O.co2       1 MOL      -0.6653
     26 O2P       -26.9835   42.3208   34.0527 O.co2       1 MOL      -0.6653
     27 O3P       -27.1927   44.3649   32.8810 O.co2       1 MOL      -0.6653
     28 N         -29.0204   47.9535   36.9136 N.am        1 MOL      -0.2712
     29 CA        -27.9224   48.4251   36.0853 C.3         1 MOL       0.1461
     30 CH3       -26.6733   48.4537   37.0359 C.3         1 MOL      -0.0287
     31 C         -28.2076   49.7916   35.5798 C.2         1 MOL       0.2294
     32 O         -28.7764   49.9306   34.5007 O.2         1 MOL      -0.3416
     33 CB        -27.7177   47.3043   34.9757 C.3         1 MOL       0.0325
     34 CG        -27.1458   47.7088   33.6577 C.ar        1 MOL      -0.0034
     35 CD1       -28.0079   47.9743   32.5615 C.ar        1 MOL      -0.0242
     36 CD2       -25.7496   47.7556   33.4363 C.ar        1 MOL      -0.0242
     37 CE1       -27.4904   48.3082   31.2977 C.ar        1 MOL       0.0115
     38 CE2       -25.2287   48.1000   32.1760 C.ar        1 MOL       0.0115
     39 CZ        -26.0949   48.3408   31.0897 C.ar        1 MOL       0.1728
     40 OH        -25.5794   48.6576   29.8642 O.3         1 MOL      -0.2040
     41 P         -25.2676   47.4055   28.9892 P.3         1 MOL       0.1348
     42 O1P       -24.3228   47.8118   27.9822 O.co2       1 MOL      -0.6653
     43 O2P       -26.4392   46.9130   28.3082 O.co2       1 MOL      -0.6653
     44 O3P       -24.6575   46.3423   29.7468 O.co2       1 MOL      -0.6653
     45 N         -27.9618   50.8477   36.3610 N.am        1 MOL      -0.2663
     46 CA        -28.3252   52.2179   36.0928 C.3         1 MOL       0.1112
     47 C         -27.4335   53.1219   36.8600 C.2         1 MOL       0.0626
     48 O         -27.2828   54.3985   36.4351 O.co2       1 MOL      -0.5664
     49 CB        -29.8509   52.3981   36.4152 C.3         1 MOL       0.0720
     50 CG        -30.2069   53.6796   37.0095 C.2         1 MOL       0.1774
     51 OD1       -29.8342   54.7296   36.5055 O.2         1 MOL      -0.3971
     52 ND2       -30.9874   53.7611   38.0724 N.am        1 MOL      -0.3007
     53 OXT       -26.7020   52.6978   37.9203 O.co2       1 MOL      -0.5664
     54 H1        -29.4586   49.3914   44.1062 H           1 MOL       0.0566
     55 H2        -31.5533   48.5378   43.2691 H           1 MOL       0.0448
     56 H3        -31.7702   51.7609   40.5489 H           1 MOL       0.0451
     57 H4        -28.5006   51.4122   43.1787 H           1 MOL       0.0459
     58 H5        -33.8668   50.3444   41.2764 H           1 MOL       0.0774
     59 H6        -33.5223   48.7242   41.8637 H           1 MOL       0.0774
     60 H7        -30.0034   53.3624   40.5757 H           1 MOL       0.1718
     61 H8        -28.7160   53.2450   41.6535 H           1 MOL       0.1718
     62 H9        -32.6595   48.4952   37.5890 H           1 MOL       0.1902
     63 H10       -30.6193   46.4384   38.1354 H           1 MOL       0.0839
     64 H11       -32.8591   46.6163   36.0612 H           1 MOL       0.0584
     65 H12       -32.6447   45.4002   37.3086 H           1 MOL       0.0584
     66 H13       -30.9202   43.6336   37.0510 H           1 MOL       0.0703
     67 H14       -31.5416   46.4586   33.9711 H           1 MOL       0.0703
     68 H15       -29.6822   42.2457   35.5143 H           1 MOL       0.0736
     69 H16       -30.2831   45.0756   32.4529 H           1 MOL       0.0736
     70 H17       -28.7852   47.6221   37.8053 H           1 MOL       0.1842
     71 H18       -25.8274   48.9379   36.5449 H           1 MOL       0.0244
     72 H19       -26.3686   47.4409   37.3451 H           1 MOL       0.0244
     73 H20       -26.8908   49.0154   37.9511 H           1 MOL       0.0244
     74 H21       -28.6859   46.8269   34.7784 H           1 MOL       0.0549
     75 H22       -27.0783   46.5014   35.3710 H           1 MOL       0.0549
     76 H23       -29.0281   47.9333   32.6734 H           1 MOL       0.0703
     77 H24       -25.0974   47.5403   34.1895 H           1 MOL       0.0703
     78 H25       -28.1303   48.4955   30.5180 H           1 MOL       0.0736
     79 H26       -24.2157   48.1305   32.0393 H           1 MOL       0.0736
     80 H27       -27.5490   50.6616   37.2251 H           1 MOL       0.1883
     81 H28       -28.1587   52.4301   35.0274 H           1 MOL       0.0754
     82 H29       -30.1774   51.5805   37.0775 H           1 MOL       0.0544
     83 H30       -30.4172   52.3060   35.4766 H           1 MOL       0.0544
     84 H31       -31.2314   54.6358   38.4310 H           1 MOL       0.1814
     85 H32       -31.3539   52.9596   38.4972 H           1 MOL       0.1814
@<TRIPOS>BOND
     1     1     5  ar
     2     2     1  ar
     3     3     2  ar
     4     6     3   1
     5     3     4  ar
     6     4    11  ar
     7    11    10   1
     8    11     5  ar
     9     7     6   1
    10     8     7   1
    11     8     9   2
    12    13    12   1
    13    13    16   1
    14    14    13   1
    15    14    15   2
    16    16    17   1
    17    17    19  ar
    18    17    18  ar
    19    18    20  ar
    20    20    22  ar
    21    22    23   1
    22    21    22  ar
    23    19    21  ar
    24    23    24   1
    25    24    27  ar
    26    24    26  ar
    27    24    25  ar
    28    29    28   1
    29    29    33   1
    30    31    29   1
    31    29    30   1
    32    31    32   2
    33    33    34   1
    34    34    36  ar
    35    34    35  ar
    36    35    37  ar
    37    37    39  ar
    38    39    40   1
    39    38    39  ar
    40    36    38  ar
    41    40    41   1
    42    41    44  ar
    43    41    43  ar
    44    41    42  ar
    45    46    47   1
    46    46    49   1
    47    45    46   1
    48    49    50   1
    49    50    51   2
    50    50    52  am
    51    47    53  ar
    52    47    48  ar
    53    28    14  am
    54    12     8  am
    55    31    45  am
    56     1    54   1
    57     2    55   1
    58     4    56   1
    59     5    57   1
    60     6    58   1
    61     6    59   1
    62    10    60   1
    63    10    61   1
    64    12    62   1
    65    13    63   1
    66    16    64   1
    67    16    65   1
    68    18    66   1
    69    19    67   1
    70    20    68   1
    71    21    69   1
    72    28    70   1
    73    30    71   1
    74    30    72   1
    75    30    73   1
    76    33    74   1
    77    33    75   1
    78    35    76   1
    79    36    77   1
    80    37    78   1
    81    38    79   1
    82    45    80   1
    83    46    81   1
    84    49    82   1
    85    49    83   1
    86    52    84   1
    87    52    85   1
@<TRIPOS>SUBSTRUCTURE
     1  MOL      1

