@<TRIPOS>MOLECULE
1jyq_ligand_094
    85    87
SMALL
GAST_HUCK
****
This file was generated by PARSER (from files_GN.cpp)

@<TRIPOS>ATOM
      1 C1        -29.5597   49.8847   43.9958 C.ar        1 MOL      -0.0801
      2 C2        -30.5257   49.0758   43.3667 C.ar        1 MOL      -0.0711
      3 C3        -31.3306   49.5880   42.3195 C.ar        1 MOL      -0.0250
      4 C4        -31.1729   50.9451   41.9518 C.ar        1 MOL      -0.0414
      5 C6        -29.3948   51.2215   43.5970 C.ar        1 MOL      -0.0516
      6 C12       -32.3289   48.7140   41.6482 C.3         1 MOL       0.1084
      7 O13       -32.6845   49.1890   40.3370 O.3         1 MOL      -0.2508
      8 C16       -32.4083   48.6248   39.1306 C.2         1 MOL       0.3241
      9 O18       -31.6981   47.4765   39.0595 O.2         1 MOL      -0.3773
     10 N11       -30.0704   53.0463   42.2199 N.pl3       1 MOL      -0.3383
     11 C5        -30.2096   51.7587   42.5820 C.ar        1 MOL       0.0282
     12 N         -32.8283   49.2777   38.0208 N.am        1 MOL      -0.2380
     13 CA        -32.5709   48.8898   36.6627 C.3         1 MOL       0.1484
     14 C         -31.5294   49.7703   36.1395 C.2         1 MOL       0.2046
     15 O         -31.8250   50.8903   35.7357 O.2         1 MOL      -0.3944
     16 CB        -33.8972   48.9119   35.8375 C.3         1 MOL       0.0400
     17 CG        -33.7418   48.2830   34.4934 C.ar        1 MOL      -0.0004
     18 CD1       -33.7848   46.8755   34.3511 C.ar        1 MOL      -0.0239
     19 CD2       -33.4864   49.0690   33.3450 C.ar        1 MOL      -0.0239
     20 CE1       -33.5742   46.2728   33.0979 C.ar        1 MOL       0.0115
     21 CE2       -33.2578   48.4663   32.0963 C.ar        1 MOL       0.0115
     22 CZ        -33.2815   47.0623   31.9661 C.ar        1 MOL       0.1728
     23 OH        -33.1222   46.4926   30.7320 O.3         1 MOL      -0.2040
     24 P         -31.6544   46.1002   30.3985 P.3         1 MOL       0.1348
     25 O1P       -31.6511   45.5876   29.0507 O.co2       1 MOL      -0.6653
     26 O2P       -31.1744   45.0413   31.2486 O.co2       1 MOL      -0.6653
     27 O3P       -30.7455   47.2215   30.4284 O.co2       1 MOL      -0.6653
     28 N         -30.2612   49.3784   36.1747 N.am        1 MOL      -0.2712
     29 CA        -29.0880   50.0664   35.6639 C.3         1 MOL       0.1461
     30 CH3       -27.8747   49.5383   36.4974 C.3         1 MOL      -0.0287
     31 C         -29.1729   51.5229   35.8871 C.2         1 MOL       0.2294
     32 O         -28.7886   52.3211   35.0316 O.2         1 MOL      -0.3416
     33 CB        -28.9315   49.6956   34.1356 C.3         1 MOL       0.0325
     34 CG        -28.4924   48.3044   33.8195 C.ar        1 MOL      -0.0034
     35 CD1       -29.4124   47.2324   33.7514 C.ar        1 MOL      -0.0242
     36 CD2       -27.1221   48.0345   33.5911 C.ar        1 MOL      -0.0242
     37 CE1       -28.9740   45.9321   33.4378 C.ar        1 MOL       0.0115
     38 CE2       -26.6820   46.7376   33.2914 C.ar        1 MOL       0.0115
     39 CZ        -27.6115   45.6788   33.1726 C.ar        1 MOL       0.1728
     40 OH        -27.2075   44.4008   32.8844 O.3         1 MOL      -0.2040
     41 P         -26.7124   44.1952   31.4221 P.3         1 MOL       0.1348
     42 O1P       -26.3448   42.8091   31.2728 O.co2       1 MOL      -0.6653
     43 O2P       -25.5285   44.9688   31.1408 O.co2       1 MOL      -0.6653
     44 O3P       -27.7222   44.4779   30.4333 O.co2       1 MOL      -0.6653
     45 N         -29.7277   52.0080   36.9963 N.am        1 MOL      -0.2663
     46 CA        -30.0847   53.3792   37.2116 C.3         1 MOL       0.1112
     47 C         -28.8801   54.2416   37.1159 C.2         1 MOL       0.0626
     48 O         -28.5733   54.8702   35.9529 O.co2       1 MOL      -0.5664
     49 CB        -30.8058   53.5118   38.5844 C.3         1 MOL       0.0720
     50 CG        -31.5506   54.7488   38.7346 C.2         1 MOL       0.1774
     51 OD1       -32.5673   54.9349   38.0810 O.2         1 MOL      -0.3971
     52 ND2       -31.1742   55.6929   39.5675 N.am        1 MOL      -0.3007
     53 OXT       -27.9920   54.2915   38.1286 O.co2       1 MOL      -0.5664
     54 H1        -28.9778   49.4988   44.7434 H           1 MOL       0.0566
     55 H2        -30.6266   48.1042   43.6717 H           1 MOL       0.0448
     56 H3        -31.7571   51.3476   41.2138 H           1 MOL       0.0451
     57 H4        -28.6900   51.8032   44.0571 H           1 MOL       0.0459
     58 H5        -33.2350   48.6876   42.2568 H           1 MOL       0.0774
     59 H6        -31.9454   47.6923   41.5863 H           1 MOL       0.0774
     60 H7        -30.6470   53.4232   41.5385 H           1 MOL       0.1718
     61 H8        -29.3863   53.5959   42.6292 H           1 MOL       0.1718
     62 H9        -33.3161   50.1049   38.1589 H           1 MOL       0.1902
     63 H10       -32.1944   47.8621   36.6214 H           1 MOL       0.0839
     64 H11       -34.2471   49.9433   35.7369 H           1 MOL       0.0584
     65 H12       -34.6770   48.3791   36.3905 H           1 MOL       0.0584
     66 H13       -33.9683   46.2805   35.1627 H           1 MOL       0.0703
     67 H14       -33.4457   50.0889   33.4137 H           1 MOL       0.0703
     68 H15       -33.6208   45.2549   33.0112 H           1 MOL       0.0736
     69 H16       -33.0655   49.0502   31.2789 H           1 MOL       0.0736
     70 H17       -30.1039   48.5048   36.5717 H           1 MOL       0.1842
     71 H18       -26.9383   49.9620   36.1271 H           1 MOL       0.0244
     72 H19       -27.8037   48.4502   36.4440 H           1 MOL       0.0244
     73 H20       -27.9735   49.8012   37.5541 H           1 MOL       0.0244
     74 H21       -28.2061   50.3731   33.6722 H           1 MOL       0.0549
     75 H22       -29.8741   49.8869   33.6161 H           1 MOL       0.0549
     76 H23       -30.4076   47.3951   33.9240 H           1 MOL       0.0703
     77 H24       -26.4272   48.7852   33.6537 H           1 MOL       0.0703
     78 H25       -29.6511   45.1667   33.3944 H           1 MOL       0.0736
     79 H26       -25.6855   46.5649   33.1401 H           1 MOL       0.0736
     80 H27       -30.0082   51.3611   37.6652 H           1 MOL       0.1883
     81 H28       -30.7969   53.6656   36.4306 H           1 MOL       0.0754
     82 H29       -30.0669   53.4069   39.3815 H           1 MOL       0.0544
     83 H30       -31.5158   52.6849   38.6978 H           1 MOL       0.0544
     84 H31       -31.6986   56.5057   39.6438 H           1 MOL       0.1814
     85 H32       -30.3674   55.5877   40.0959 H           1 MOL       0.1814
@<TRIPOS>BOND
     1     1     5  ar
     2     2     1  ar
     3     3     2  ar
     4     6     3   1
     5     3     4  ar
     6     4    11  ar
     7    11    10   1
     8    11     5  ar
     9     7     6   1
    10     8     7   1
    11     8     9   2
    12    13    12   1
    13    13    16   1
    14    14    13   1
    15    14    15   2
    16    16    17   1
    17    17    19  ar
    18    17    18  ar
    19    18    20  ar
    20    20    22  ar
    21    22    23   1
    22    21    22  ar
    23    19    21  ar
    24    23    24   1
    25    24    27  ar
    26    24    26  ar
    27    24    25  ar
    28    29    28   1
    29    29    33   1
    30    31    29   1
    31    29    30   1
    32    31    32   2
    33    33    34   1
    34    34    36  ar
    35    34    35  ar
    36    35    37  ar
    37    37    39  ar
    38    39    40   1
    39    38    39  ar
    40    36    38  ar
    41    40    41   1
    42    41    44  ar
    43    41    43  ar
    44    41    42  ar
    45    46    47   1
    46    46    49   1
    47    45    46   1
    48    49    50   1
    49    50    51   2
    50    50    52  am
    51    47    53  ar
    52    47    48  ar
    53    28    14  am
    54    12     8  am
    55    31    45  am
    56     1    54   1
    57     2    55   1
    58     4    56   1
    59     5    57   1
    60     6    58   1
    61     6    59   1
    62    10    60   1
    63    10    61   1
    64    12    62   1
    65    13    63   1
    66    16    64   1
    67    16    65   1
    68    18    66   1
    69    19    67   1
    70    20    68   1
    71    21    69   1
    72    28    70   1
    73    30    71   1
    74    30    72   1
    75    30    73   1
    76    33    74   1
    77    33    75   1
    78    35    76   1
    79    36    77   1
    80    37    78   1
    81    38    79   1
    82    45    80   1
    83    46    81   1
    84    49    82   1
    85    49    83   1
    86    52    84   1
    87    52    85   1
@<TRIPOS>SUBSTRUCTURE
     1  MOL      1

