@<TRIPOS>MOLECULE
1jyq_ligand_032
    85    87
SMALL
GAST_HUCK
****
This file was generated by PARSER (from files_GN.cpp)

@<TRIPOS>ATOM
      1 C1        -29.7032   44.1691   42.2219 C.ar        1 MOL      -0.0801
      2 C2        -28.9787   44.3760   41.0347 C.ar        1 MOL      -0.0711
      3 C3        -28.1352   43.3642   40.5061 C.ar        1 MOL      -0.0250
      4 C4        -28.0212   42.1497   41.2263 C.ar        1 MOL      -0.0414
      5 C6        -29.5992   42.9462   42.9076 C.ar        1 MOL      -0.0516
      6 C12       -27.3497   43.5306   39.2539 C.3         1 MOL       0.1084
      7 O13       -27.7111   44.7045   38.5185 O.3         1 MOL      -0.2508
      8 C16       -28.3345   44.8077   37.3146 C.2         1 MOL       0.3241
      9 O18       -28.6795   43.7103   36.5886 O.2         1 MOL      -0.3773
     10 N11       -28.6054   40.7870   43.0985 N.pl3       1 MOL      -0.3383
     11 C5        -28.7468   41.9359   42.4174 C.ar        1 MOL       0.0282
     12 N         -28.7164   46.0545   36.9730 N.am        1 MOL      -0.2380
     13 CA        -29.6324   46.4327   35.9305 C.3         1 MOL       0.1484
     14 C         -29.2442   47.6988   35.3006 C.2         1 MOL       0.2046
     15 O         -30.0107   48.2019   34.4853 O.2         1 MOL      -0.3944
     16 CB        -31.0530   46.5213   36.5906 C.3         1 MOL       0.0400
     17 CG        -31.5798   45.1930   37.0000 C.ar        1 MOL      -0.0004
     18 CD1       -32.1857   44.3399   36.0455 C.ar        1 MOL      -0.0239
     19 CD2       -31.4083   44.7086   38.3222 C.ar        1 MOL      -0.0239
     20 CE1       -32.5727   43.0352   36.3892 C.ar        1 MOL       0.0115
     21 CE2       -31.7597   43.3895   38.6563 C.ar        1 MOL       0.0115
     22 CZ        -32.3043   42.5273   37.6843 C.ar        1 MOL       0.1728
     23 OH        -32.6437   41.2381   38.0159 O.3         1 MOL      -0.2040
     24 P         -31.5495   40.1930   37.6360 P.3         1 MOL       0.1348
     25 O1P       -31.2556   40.2349   36.2178 O.co2       1 MOL      -0.6653
     26 O2P       -32.0824   38.8816   37.9121 O.co2       1 MOL      -0.6653
     27 O3P       -30.3233   40.3318   38.3878 O.co2       1 MOL      -0.6653
     28 N         -28.0990   48.3138   35.6119 N.am        1 MOL      -0.2712
     29 CA        -27.6490   49.6643   35.3272 C.3         1 MOL       0.1461
     30 CH3       -26.1778   49.6900   35.8648 C.3         1 MOL      -0.0287
     31 C         -28.4305   50.6702   36.0861 C.2         1 MOL       0.2294
     32 O         -29.4255   50.3331   36.7212 O.2         1 MOL      -0.3416
     33 CB        -27.6812   50.0218   33.7936 C.3         1 MOL       0.0325
     34 CG        -26.8293   49.1980   32.8848 C.ar        1 MOL      -0.0034
     35 CD1       -25.5315   49.6338   32.5194 C.ar        1 MOL      -0.0242
     36 CD2       -27.3166   48.0006   32.3137 C.ar        1 MOL      -0.0242
     37 CE1       -24.7455   48.8934   31.6205 C.ar        1 MOL       0.0115
     38 CE2       -26.5389   47.2670   31.3998 C.ar        1 MOL       0.0115
     39 CZ        -25.2541   47.7159   31.0283 C.ar        1 MOL       0.1728
     40 OH        -24.5204   46.9361   30.1701 O.3         1 MOL      -0.2040
     41 P         -24.2243   47.5448   28.7635 P.3         1 MOL       0.1348
     42 O1P       -24.2988   46.4854   27.7844 O.co2       1 MOL      -0.6653
     43 O2P       -22.8725   48.0391   28.7146 O.co2       1 MOL      -0.6653
     44 O3P       -25.1263   48.5899   28.3384 O.co2       1 MOL      -0.6653
     45 N         -28.0446   51.9412   36.1158 N.am        1 MOL      -0.2663
     46 CA        -28.6470   53.0156   36.8638 C.3         1 MOL       0.1112
     47 C         -28.0112   54.3131   36.5186 C.2         1 MOL       0.0626
     48 O         -26.8551   54.3831   35.8161 O.co2       1 MOL      -0.5664
     49 CB        -28.5923   52.7574   38.4109 C.3         1 MOL       0.0720
     50 CG        -29.7061   53.3434   39.1445 C.2         1 MOL       0.1774
     51 OD1       -30.8454   53.2233   38.7145 O.2         1 MOL      -0.3971
     52 ND2       -29.5627   53.9677   40.2938 N.am        1 MOL      -0.3007
     53 OXT       -28.4990   55.4744   37.0189 O.co2       1 MOL      -0.5664
     54 H1        -30.3006   44.9113   42.5960 H           1 MOL       0.0566
     55 H2        -29.0646   45.2799   40.5624 H           1 MOL       0.0448
     56 H3        -27.4146   41.4039   40.8700 H           1 MOL       0.0451
     57 H4        -30.1171   42.8079   43.7789 H           1 MOL       0.0459
     58 H5        -27.4768   42.6436   38.6311 H           1 MOL       0.0774
     59 H6        -26.2998   43.6199   39.5151 H           1 MOL       0.0774
     60 H7        -27.9225   40.1539   42.8301 H           1 MOL       0.1718
     61 H8        -29.1053   40.6444   43.9177 H           1 MOL       0.1718
     62 H9        -28.4958   46.7478   37.6151 H           1 MOL       0.1902
     63 H10       -29.6524   45.6747   35.1421 H           1 MOL       0.0839
     64 H11       -31.7738   46.9732   35.8967 H           1 MOL       0.0584
     65 H12       -30.9952   47.1914   37.4555 H           1 MOL       0.0584
     66 H13       -32.3319   44.6607   35.0856 H           1 MOL       0.0703
     67 H14       -30.9903   45.3027   39.0379 H           1 MOL       0.0703
     68 H15       -33.0139   42.4290   35.6884 H           1 MOL       0.0736
     69 H16       -31.6007   43.0430   39.6057 H           1 MOL       0.0736
     70 H17       -27.5131   47.8047   36.1950 H           1 MOL       0.1842
     71 H18       -25.6889   50.6427   35.6421 H           1 MOL       0.0244
     72 H19       -25.5738   48.8948   35.4149 H           1 MOL       0.0244
     73 H20       -26.1580   49.5454   36.9509 H           1 MOL       0.0244
     74 H21       -27.3862   51.0670   33.6723 H           1 MOL       0.0549
     75 H22       -28.7116   49.9860   33.4262 H           1 MOL       0.0549
     76 H23       -25.1497   50.4953   32.9117 H           1 MOL       0.0703
     77 H24       -28.2507   47.6579   32.5478 H           1 MOL       0.0703
     78 H25       -23.8059   49.2181   31.3814 H           1 MOL       0.0736
     79 H26       -26.9121   46.4032   30.9994 H           1 MOL       0.0736
     80 H27       -27.2752   52.1710   35.5704 H           1 MOL       0.1883
     81 H28       -29.6851   53.0912   36.5219 H           1 MOL       0.0754
     82 H29       -27.6412   53.1153   38.8160 H           1 MOL       0.0544
     83 H30       -28.6169   51.6832   38.6164 H           1 MOL       0.0544
     84 H31       -30.3442   54.3296   40.7400 H           1 MOL       0.1814
     85 H32       -28.6999   54.0280   40.7309 H           1 MOL       0.1814
@<TRIPOS>BOND
     1     1     5  ar
     2     2     1  ar
     3     3     2  ar
     4     6     3   1
     5     3     4  ar
     6     4    11  ar
     7    11    10   1
     8    11     5  ar
     9     7     6   1
    10     8     7   1
    11     8     9   2
    12    13    12   1
    13    13    16   1
    14    14    13   1
    15    14    15   2
    16    16    17   1
    17    17    19  ar
    18    17    18  ar
    19    18    20  ar
    20    20    22  ar
    21    22    23   1
    22    21    22  ar
    23    19    21  ar
    24    23    24   1
    25    24    27  ar
    26    24    26  ar
    27    24    25  ar
    28    29    28   1
    29    29    33   1
    30    31    29   1
    31    29    30   1
    32    31    32   2
    33    33    34   1
    34    34    36  ar
    35    34    35  ar
    36    35    37  ar
    37    37    39  ar
    38    39    40   1
    39    38    39  ar
    40    36    38  ar
    41    40    41   1
    42    41    44  ar
    43    41    43  ar
    44    41    42  ar
    45    46    47   1
    46    46    49   1
    47    45    46   1
    48    49    50   1
    49    50    51   2
    50    50    52  am
    51    47    53  ar
    52    47    48  ar
    53    28    14  am
    54    12     8  am
    55    31    45  am
    56     1    54   1
    57     2    55   1
    58     4    56   1
    59     5    57   1
    60     6    58   1
    61     6    59   1
    62    10    60   1
    63    10    61   1
    64    12    62   1
    65    13    63   1
    66    16    64   1
    67    16    65   1
    68    18    66   1
    69    19    67   1
    70    20    68   1
    71    21    69   1
    72    28    70   1
    73    30    71   1
    74    30    72   1
    75    30    73   1
    76    33    74   1
    77    33    75   1
    78    35    76   1
    79    36    77   1
    80    37    78   1
    81    38    79   1
    82    45    80   1
    83    46    81   1
    84    49    82   1
    85    49    83   1
    86    52    84   1
    87    52    85   1
@<TRIPOS>SUBSTRUCTURE
     1  MOL      1

