@<TRIPOS>MOLECULE
1jyq_ligand_047
    85    87
SMALL
GAST_HUCK
****
This file was generated by PARSER (from files_GN.cpp)

@<TRIPOS>ATOM
      1 C1        -27.5388   43.8212   39.4073 C.ar        1 MOL      -0.0801
      2 C2        -27.6674   43.5445   38.0361 C.ar        1 MOL      -0.0711
      3 C3        -28.8384   43.9090   37.3305 C.ar        1 MOL      -0.0250
      4 C4        -29.8781   44.5604   38.0314 C.ar        1 MOL      -0.0414
      5 C6        -28.5773   44.4686   40.0947 C.ar        1 MOL      -0.0516
      6 C12       -28.9778   43.6205   35.8773 C.3         1 MOL       0.1084
      7 O13       -28.6717   44.7548   35.0578 O.3         1 MOL      -0.2508
      8 C16       -27.7680   45.7263   35.3451 C.2         1 MOL       0.3241
      9 O18       -27.0828   45.6991   36.5161 O.2         1 MOL      -0.3773
     10 N11       -30.7572   45.4312   40.0817 N.pl3       1 MOL      -0.3383
     11 C5        -29.7579   44.8355   39.4110 C.ar        1 MOL       0.0282
     12 N         -27.5778   46.7070   34.4374 N.am        1 MOL      -0.2380
     13 CA        -26.7422   47.8683   34.6069 C.3         1 MOL       0.1484
     14 C         -27.3855   48.7962   35.5357 C.2         1 MOL       0.2046
     15 O         -26.7048   49.3752   36.3732 O.2         1 MOL      -0.3944
     16 CB        -26.3758   48.5252   33.2364 C.3         1 MOL       0.0400
     17 CG        -27.5212   49.1069   32.4770 C.ar        1 MOL      -0.0004
     18 CD1       -27.9768   50.4153   32.7557 C.ar        1 MOL      -0.0239
     19 CD2       -28.1784   48.3639   31.4699 C.ar        1 MOL      -0.0239
     20 CE1       -29.0909   50.9479   32.0849 C.ar        1 MOL       0.0115
     21 CE2       -29.2941   48.8945   30.7980 C.ar        1 MOL       0.0115
     22 CZ        -29.7747   50.1795   31.1183 C.ar        1 MOL       0.1728
     23 OH        -30.8465   50.6881   30.4378 O.3         1 MOL      -0.2040
     24 P         -32.0814   50.9730   31.3400 P.3         1 MOL       0.1348
     25 O1P       -33.1777   51.3340   30.4786 O.co2       1 MOL      -0.6653
     26 O2P       -31.8424   52.0942   32.2167 O.co2       1 MOL      -0.6653
     27 O3P       -32.5015   49.8236   32.1023 O.co2       1 MOL      -0.6653
     28 N         -28.7138   48.9405   35.5035 N.am        1 MOL      -0.2712
     29 CA        -29.5779   49.7003   36.3862 C.3         1 MOL       0.1461
     30 CH3       -30.9869   49.6120   35.7060 C.3         1 MOL      -0.0287
     31 C         -29.2132   51.1301   36.4070 C.2         1 MOL       0.2294
     32 O         -28.5527   51.5942   35.4751 O.2         1 MOL      -0.3416
     33 CB        -29.5500   48.9845   37.7966 C.3         1 MOL       0.0325
     34 CG        -30.6444   49.2597   38.7715 C.ar        1 MOL      -0.0034
     35 CD1       -30.3722   49.8721   40.0183 C.ar        1 MOL      -0.0242
     36 CD2       -31.9744   48.8487   38.5049 C.ar        1 MOL      -0.0242
     37 CE1       -31.4064   50.1565   40.9229 C.ar        1 MOL       0.0115
     38 CE2       -33.0092   49.1150   39.4188 C.ar        1 MOL       0.0115
     39 CZ        -32.7317   49.7699   40.6383 C.ar        1 MOL       0.1728
     40 OH        -33.7438   50.1056   41.4973 O.3         1 MOL      -0.2040
     41 P         -34.0848   48.9911   42.5303 P.3         1 MOL       0.1348
     42 O1P       -35.1365   49.4866   43.3811 O.co2       1 MOL      -0.6653
     43 O2P       -32.9648   48.6657   43.3777 O.co2       1 MOL      -0.6653
     44 O3P       -34.5828   47.7975   41.8959 O.co2       1 MOL      -0.6653
     45 N         -29.7723   51.9628   37.2793 N.am        1 MOL      -0.2663
     46 CA        -29.9640   53.3802   37.1523 C.3         1 MOL       0.1112
     47 C         -28.7188   54.1698   37.0165 C.2         1 MOL       0.0626
     48 O         -28.4510   54.8607   35.8840 O.co2       1 MOL      -0.5664
     49 CB        -30.8981   53.9029   38.2898 C.3         1 MOL       0.0720
     50 CG        -30.2465   54.4315   39.4811 C.2         1 MOL       0.1774
     51 OD1       -30.3708   55.6067   39.8001 O.2         1 MOL      -0.3971
     52 ND2       -29.4630   53.6845   40.2412 N.am        1 MOL      -0.3007
     53 OXT       -27.7442   54.0978   37.9485 O.co2       1 MOL      -0.5664
     54 H1        -26.6867   43.5483   39.9042 H           1 MOL       0.0566
     55 H2        -26.8959   43.0747   37.5516 H           1 MOL       0.0448
     56 H3        -30.7366   44.8257   37.5451 H           1 MOL       0.0451
     57 H4        -28.4727   44.6685   41.0917 H           1 MOL       0.0459
     58 H5        -30.0015   43.3089   35.6736 H           1 MOL       0.0774
     59 H6        -28.3240   42.8036   35.5646 H           1 MOL       0.0774
     60 H7        -31.5771   45.6813   39.6217 H           1 MOL       0.1718
     61 H8        -30.6686   45.6148   41.0366 H           1 MOL       0.1718
     62 H9        -28.1418   46.6786   33.6451 H           1 MOL       0.1902
     63 H10       -25.7837   47.5454   35.0408 H           1 MOL       0.0839
     64 H11       -25.8781   47.7783   32.6091 H           1 MOL       0.0584
     65 H12       -25.6226   49.3011   33.4273 H           1 MOL       0.0584
     66 H13       -27.5070   50.9874   33.4626 H           1 MOL       0.0703
     67 H14       -27.8492   47.4269   31.2242 H           1 MOL       0.0703
     68 H15       -29.4178   51.8915   32.3029 H           1 MOL       0.0736
     69 H16       -29.7582   48.3386   30.0769 H           1 MOL       0.0736
     70 H17       -29.1632   48.4318   34.8119 H           1 MOL       0.1842
     71 H18       -31.7452   50.1579   36.2764 H           1 MOL       0.0244
     72 H19       -31.3111   48.5704   35.6216 H           1 MOL       0.0244
     73 H20       -30.9608   50.0348   34.6971 H           1 MOL       0.0244
     74 H21       -28.5964   49.2231   38.2751 H           1 MOL       0.0549
     75 H22       -29.5295   47.8977   37.6413 H           1 MOL       0.0549
     76 H23       -29.4136   50.1385   40.2564 H           1 MOL       0.0703
     77 H24       -32.2028   48.3601   37.6327 H           1 MOL       0.0703
     78 H25       -31.1908   50.6401   41.7982 H           1 MOL       0.0736
     79 H26       -33.9646   48.8210   39.2058 H           1 MOL       0.0736
     80 H27       -30.2794   51.5377   37.9901 H           1 MOL       0.1883
     81 H28       -30.5342   53.5076   36.2255 H           1 MOL       0.0754
     82 H29       -31.5841   53.1115   38.6124 H           1 MOL       0.0544
     83 H30       -31.5315   54.6917   37.8769 H           1 MOL       0.0544
     84 H31       -29.0241   54.0822   41.0213 H           1 MOL       0.1814
     85 H32       -29.3045   52.7557   40.0221 H           1 MOL       0.1814
@<TRIPOS>BOND
     1     1     5  ar
     2     2     1  ar
     3     3     2  ar
     4     6     3   1
     5     3     4  ar
     6     4    11  ar
     7    11    10   1
     8    11     5  ar
     9     7     6   1
    10     8     7   1
    11     8     9   2
    12    13    12   1
    13    13    16   1
    14    14    13   1
    15    14    15   2
    16    16    17   1
    17    17    19  ar
    18    17    18  ar
    19    18    20  ar
    20    20    22  ar
    21    22    23   1
    22    21    22  ar
    23    19    21  ar
    24    23    24   1
    25    24    27  ar
    26    24    26  ar
    27    24    25  ar
    28    29    28   1
    29    29    33   1
    30    31    29   1
    31    29    30   1
    32    31    32   2
    33    33    34   1
    34    34    36  ar
    35    34    35  ar
    36    35    37  ar
    37    37    39  ar
    38    39    40   1
    39    38    39  ar
    40    36    38  ar
    41    40    41   1
    42    41    44  ar
    43    41    43  ar
    44    41    42  ar
    45    46    47   1
    46    46    49   1
    47    45    46   1
    48    49    50   1
    49    50    51   2
    50    50    52  am
    51    47    53  ar
    52    47    48  ar
    53    28    14  am
    54    12     8  am
    55    31    45  am
    56     1    54   1
    57     2    55   1
    58     4    56   1
    59     5    57   1
    60     6    58   1
    61     6    59   1
    62    10    60   1
    63    10    61   1
    64    12    62   1
    65    13    63   1
    66    16    64   1
    67    16    65   1
    68    18    66   1
    69    19    67   1
    70    20    68   1
    71    21    69   1
    72    28    70   1
    73    30    71   1
    74    30    72   1
    75    30    73   1
    76    33    74   1
    77    33    75   1
    78    35    76   1
    79    36    77   1
    80    37    78   1
    81    38    79   1
    82    45    80   1
    83    46    81   1
    84    49    82   1
    85    49    83   1
    86    52    84   1
    87    52    85   1
@<TRIPOS>SUBSTRUCTURE
     1  MOL      1

