@<TRIPOS>MOLECULE
1jyq_ligand_050
    85    87
SMALL
GAST_HUCK
****
This file was generated by PARSER (from files_GN.cpp)

@<TRIPOS>ATOM
      1 C1        -26.0122   52.4966   26.9913 C.ar        1 MOL      -0.0801
      2 C2        -26.9836   51.5869   27.4512 C.ar        1 MOL      -0.0711
      3 C3        -28.2147   52.0446   27.9777 C.ar        1 MOL      -0.0250
      4 C4        -28.4430   53.4401   28.0480 C.ar        1 MOL      -0.0414
      5 C6        -26.2607   53.8785   27.0473 C.ar        1 MOL      -0.0516
      6 C12       -29.2537   51.0783   28.4179 C.3         1 MOL       0.1084
      7 O13       -29.1186   50.7905   29.8173 O.3         1 MOL      -0.2508
      8 C16       -29.8273   49.8520   30.5031 C.2         1 MOL       0.3241
      9 O18       -30.7398   49.0910   29.8500 O.2         1 MOL      -0.3773
     10 N11       -27.7183   55.6772   27.6174 N.pl3       1 MOL      -0.3383
     11 C5        -27.4778   54.3558   27.5741 C.ar        1 MOL       0.0282
     12 N         -29.5616   49.6662   31.8175 N.am        1 MOL      -0.2380
     13 CA        -30.1069   48.6306   32.6628 C.3         1 MOL       0.1484
     14 C         -30.8524   49.2298   33.7715 C.2         1 MOL       0.2046
     15 O         -31.9519   48.7813   34.0800 O.2         1 MOL      -0.3944
     16 CB        -28.9917   47.6884   33.2258 C.3         1 MOL       0.0400
     17 CG        -27.8534   47.4003   32.3098 C.ar        1 MOL      -0.0004
     18 CD1       -26.5336   47.7585   32.6756 C.ar        1 MOL      -0.0239
     19 CD2       -28.0739   46.7518   31.0726 C.ar        1 MOL      -0.0239
     20 CE1       -25.4578   47.4801   31.8168 C.ar        1 MOL       0.0115
     21 CE2       -26.9910   46.4762   30.2156 C.ar        1 MOL       0.0115
     22 CZ        -25.6818   46.8703   30.5682 C.ar        1 MOL       0.1728
     23 OH        -24.5933   46.6016   29.7876 O.3         1 MOL      -0.2040
     24 P         -24.4657   47.4921   28.5136 P.3         1 MOL       0.1348
     25 O1P       -25.2264   48.7209   28.5043 O.co2       1 MOL      -0.6653
     26 O2P       -24.8500   46.7047   27.3651 O.co2       1 MOL      -0.6653
     27 O3P       -23.0776   47.8407   28.3229 O.co2       1 MOL      -0.6653
     28 N         -30.2579   50.1458   34.5277 N.am        1 MOL      -0.2712
     29 CA        -30.6910   50.7897   35.7572 C.3         1 MOL       0.1461
     30 CH3       -32.0472   51.5311   35.4705 C.3         1 MOL      -0.0287
     31 C         -29.6935   51.8193   36.1512 C.2         1 MOL       0.2294
     32 O         -28.6367   51.9422   35.5465 O.2         1 MOL      -0.3416
     33 CB        -30.8522   49.7421   36.9361 C.3         1 MOL       0.0325
     34 CG        -29.9965   48.5108   36.9123 C.ar        1 MOL      -0.0034
     35 CD1       -28.5985   48.5720   36.6973 C.ar        1 MOL      -0.0242
     36 CD2       -30.5768   47.2434   37.1481 C.ar        1 MOL      -0.0242
     37 CE1       -27.8284   47.3906   36.5959 C.ar        1 MOL       0.0115
     38 CE2       -29.8005   46.0710   37.1012 C.ar        1 MOL       0.0115
     39 CZ        -28.4352   46.1280   36.7483 C.ar        1 MOL       0.1728
     40 OH        -27.6778   44.9802   36.6535 O.3         1 MOL      -0.2040
     41 P         -28.0040   44.0696   35.4223 P.3         1 MOL       0.1348
     42 O1P       -27.6036   42.7203   35.7500 O.co2       1 MOL      -0.6653
     43 O2P       -27.3214   44.4232   34.1940 O.co2       1 MOL      -0.6653
     44 O3P       -29.4121   43.9524   35.1221 O.co2       1 MOL      -0.6653
     45 N         -29.9631   52.6213   37.1878 N.am        1 MOL      -0.2663
     46 CA        -29.2518   53.7254   37.7732 C.3         1 MOL       0.1112
     47 C         -28.0449   54.1979   37.0358 C.2         1 MOL       0.0626
     48 O         -26.7884   54.0323   37.5151 O.co2       1 MOL      -0.5664
     49 CB        -28.9813   53.4601   39.2903 C.3         1 MOL       0.0720
     50 CG        -30.1280   53.1504   40.1372 C.2         1 MOL       0.1774
     51 OD1       -31.2262   52.8689   39.6696 O.2         1 MOL      -0.3971
     52 ND2       -30.0038   53.1466   41.4490 N.am        1 MOL      -0.3007
     53 OXT       -28.1791   54.8130   35.8377 O.co2       1 MOL      -0.5664
     54 H1        -25.1280   52.1511   26.6121 H           1 MOL       0.0566
     55 H2        -26.7877   50.5845   27.3916 H           1 MOL       0.0448
     56 H3        -29.3240   53.7936   28.4352 H           1 MOL       0.0451
     57 H4        -25.5517   54.5305   26.7058 H           1 MOL       0.0459
     58 H5        -29.1644   50.1501   27.8488 H           1 MOL       0.0774
     59 H6        -30.2510   51.4802   28.2205 H           1 MOL       0.0774
     60 H7        -28.5627   56.0114   27.9527 H           1 MOL       0.1718
     61 H8        -27.0509   56.3012   27.2869 H           1 MOL       0.1718
     62 H9        -28.8984   50.2540   32.2139 H           1 MOL       0.1902
     63 H10       -30.7940   48.0023   32.0905 H           1 MOL       0.0839
     64 H11       -29.4491   46.7343   33.5070 H           1 MOL       0.0584
     65 H12       -28.5878   48.1273   34.1387 H           1 MOL       0.0584
     66 H13       -26.3402   48.2147   33.5681 H           1 MOL       0.0703
     67 H14       -29.0155   46.4694   30.7936 H           1 MOL       0.0703
     68 H15       -24.5100   47.7501   32.0917 H           1 MOL       0.0736
     69 H16       -27.1657   46.0186   29.3244 H           1 MOL       0.0736
     70 H17       -29.3814   50.4170   34.2192 H           1 MOL       0.1842
     71 H18       -32.4229   52.0373   36.3707 H           1 MOL       0.0244
     72 H19       -32.8160   50.8244   35.1389 H           1 MOL       0.0244
     73 H20       -31.9133   52.2816   34.6850 H           1 MOL       0.0244
     74 H21       -31.9033   49.4327   36.9592 H           1 MOL       0.0549
     75 H22       -30.6785   50.2086   37.9127 H           1 MOL       0.0549
     76 H23       -28.1318   49.4732   36.5858 H           1 MOL       0.0703
     77 H24       -31.5709   47.1535   37.3564 H           1 MOL       0.0703
     78 H25       -26.8279   47.4569   36.3996 H           1 MOL       0.0736
     79 H26       -30.2453   45.1721   37.2937 H           1 MOL       0.0736
     80 H27       -30.8073   52.4488   37.6206 H           1 MOL       0.1883
     81 H28       -29.9459   54.5710   37.7398 H           1 MOL       0.0754
     82 H29       -28.5091   54.3609   39.7066 H           1 MOL       0.0544
     83 H30       -28.2621   52.6358   39.3834 H           1 MOL       0.0544
     84 H31       -30.7658   52.9118   42.0051 H           1 MOL       0.1814
     85 H32       -29.1721   53.4293   41.8655 H           1 MOL       0.1814
@<TRIPOS>BOND
     1     1     5  ar
     2     2     1  ar
     3     3     2  ar
     4     6     3   1
     5     3     4  ar
     6     4    11  ar
     7    11    10   1
     8    11     5  ar
     9     7     6   1
    10     8     7   1
    11     8     9   2
    12    13    12   1
    13    13    16   1
    14    14    13   1
    15    14    15   2
    16    16    17   1
    17    17    19  ar
    18    17    18  ar
    19    18    20  ar
    20    20    22  ar
    21    22    23   1
    22    21    22  ar
    23    19    21  ar
    24    23    24   1
    25    24    27  ar
    26    24    26  ar
    27    24    25  ar
    28    29    28   1
    29    29    33   1
    30    31    29   1
    31    29    30   1
    32    31    32   2
    33    33    34   1
    34    34    36  ar
    35    34    35  ar
    36    35    37  ar
    37    37    39  ar
    38    39    40   1
    39    38    39  ar
    40    36    38  ar
    41    40    41   1
    42    41    44  ar
    43    41    43  ar
    44    41    42  ar
    45    46    47   1
    46    46    49   1
    47    45    46   1
    48    49    50   1
    49    50    51   2
    50    50    52  am
    51    47    53  ar
    52    47    48  ar
    53    28    14  am
    54    12     8  am
    55    31    45  am
    56     1    54   1
    57     2    55   1
    58     4    56   1
    59     5    57   1
    60     6    58   1
    61     6    59   1
    62    10    60   1
    63    10    61   1
    64    12    62   1
    65    13    63   1
    66    16    64   1
    67    16    65   1
    68    18    66   1
    69    19    67   1
    70    20    68   1
    71    21    69   1
    72    28    70   1
    73    30    71   1
    74    30    72   1
    75    30    73   1
    76    33    74   1
    77    33    75   1
    78    35    76   1
    79    36    77   1
    80    37    78   1
    81    38    79   1
    82    45    80   1
    83    46    81   1
    84    49    82   1
    85    49    83   1
    86    52    84   1
    87    52    85   1
@<TRIPOS>SUBSTRUCTURE
     1  MOL      1

