@<TRIPOS>MOLECULE
1jyq_ligand_064
    85    87
SMALL
GAST_HUCK
****
This file was generated by PARSER (from files_GN.cpp)

@<TRIPOS>ATOM
      1 C1        -25.1373   49.8936   30.5612 C.ar        1 MOL      -0.0801
      2 C2        -26.5193   49.7049   30.3828 C.ar        1 MOL      -0.0711
      3 C3        -27.0180   48.5484   29.7389 C.ar        1 MOL      -0.0250
      4 C4        -26.0938   47.5849   29.2690 C.ar        1 MOL      -0.0414
      5 C6        -24.2298   48.9257   30.0928 C.ar        1 MOL      -0.0516
      6 C12       -28.4806   48.3474   29.5712 C.3         1 MOL       0.1084
      7 O13       -29.0481   47.6131   30.6636 O.3         1 MOL      -0.2508
      8 C16       -29.1677   48.0320   31.9553 C.2         1 MOL       0.3241
      9 O18       -28.7272   49.2545   32.3407 O.2         1 MOL      -0.3773
     10 N11       -23.8353   46.8730   28.9503 N.pl3       1 MOL      -0.3383
     11 C5        -24.7054   47.7780   29.4296 C.ar        1 MOL       0.0282
     12 N         -29.7078   47.1662   32.8443 N.am        1 MOL      -0.2380
     13 CA        -29.8036   47.3483   34.2748 C.3         1 MOL       0.1484
     14 C         -30.5294   48.5749   34.6301 C.2         1 MOL       0.2046
     15 O         -31.3640   48.9907   33.8253 O.2         1 MOL      -0.3944
     16 CB        -28.3991   47.1250   34.9404 C.3         1 MOL       0.0400
     17 CG        -27.7920   45.7854   34.6739 C.ar        1 MOL      -0.0004
     18 CD1       -27.3127   45.4484   33.3875 C.ar        1 MOL      -0.0239
     19 CD2       -27.6538   44.8300   35.7062 C.ar        1 MOL      -0.0239
     20 CE1       -26.7382   44.1841   33.1335 C.ar        1 MOL       0.0115
     21 CE2       -27.0525   43.5755   35.4572 C.ar        1 MOL       0.0115
     22 CZ        -26.5762   43.2433   34.1713 C.ar        1 MOL       0.1728
     23 OH        -26.0322   41.9884   34.0289 O.3         1 MOL      -0.2040
     24 P         -24.5796   41.8072   33.5273 P.3         1 MOL       0.1348
     25 O1P       -23.7454   42.9853   33.5799 O.co2       1 MOL      -0.6653
     26 O2P       -24.6235   41.3286   32.1636 O.co2       1 MOL      -0.6653
     27 O3P       -23.9346   40.7694   34.2972 O.co2       1 MOL      -0.6653
     28 N         -30.3700   49.1778   35.8059 N.am        1 MOL      -0.2712
     29 CA        -30.9507   50.3726   36.4057 C.3         1 MOL       0.1461
     30 CH3       -32.0338   51.1054   35.5447 C.3         1 MOL      -0.0287
     31 C         -29.8673   51.3472   36.6540 C.2         1 MOL       0.2294
     32 O         -28.7183   51.0911   36.2976 O.2         1 MOL      -0.3416
     33 CB        -31.5549   49.9053   37.7831 C.3         1 MOL       0.0325
     34 CG        -32.4781   48.7344   37.7186 C.ar        1 MOL      -0.0034
     35 CD1       -31.9901   47.4192   37.9180 C.ar        1 MOL      -0.0242
     36 CD2       -33.8597   48.8985   37.4602 C.ar        1 MOL      -0.0242
     37 CE1       -32.8437   46.3046   37.8198 C.ar        1 MOL       0.0115
     38 CE2       -34.7187   47.7838   37.3545 C.ar        1 MOL       0.0115
     39 CZ        -34.2100   46.4776   37.5032 C.ar        1 MOL       0.1728
     40 OH        -35.0396   45.3848   37.4368 O.3         1 MOL      -0.2040
     41 P         -35.1734   44.7854   36.0045 P.3         1 MOL       0.1348
     42 O1P       -35.9670   43.5863   36.1064 O.co2       1 MOL      -0.6653
     43 O2P       -33.9055   44.4073   35.4261 O.co2       1 MOL      -0.6653
     44 O3P       -35.8705   45.6752   35.1077 O.co2       1 MOL      -0.6653
     45 N         -30.1130   52.4931   37.2856 N.am        1 MOL      -0.2663
     46 CA        -29.2312   53.5596   37.6837 C.3         1 MOL       0.1112
     47 C         -28.0351   53.7940   36.8308 C.2         1 MOL       0.0626
     48 O         -28.1508   54.5647   35.7225 O.co2       1 MOL      -0.5664
     49 CB        -28.9280   53.4886   39.2180 C.3         1 MOL       0.0720
     50 CG        -28.6274   52.1882   39.8041 C.2         1 MOL       0.1774
     51 OD1       -28.5589   51.1591   39.1355 O.2         1 MOL      -0.3971
     52 ND2       -28.4747   52.0954   41.1091 N.am        1 MOL      -0.3007
     53 OXT       -26.8001   53.3776   37.1974 O.co2       1 MOL      -0.5664
     54 H1        -24.7903   50.7331   31.0279 H           1 MOL       0.0566
     55 H2        -27.1634   50.4119   30.7307 H           1 MOL       0.0448
     56 H3        -26.4319   46.7447   28.7916 H           1 MOL       0.0451
     57 H4        -23.2238   49.0699   30.2266 H           1 MOL       0.0459
     58 H5        -28.6688   47.7834   28.6558 H           1 MOL       0.0774
     59 H6        -29.0060   49.3010   29.4649 H           1 MOL       0.0774
     60 H7        -24.1567   46.0968   28.4741 H           1 MOL       0.1718
     61 H8        -22.8827   46.9947   29.0759 H           1 MOL       0.1718
     62 H9        -30.0341   46.3221   32.4918 H           1 MOL       0.1902
     63 H10       -30.4462   46.5333   34.6351 H           1 MOL       0.0839
     64 H11       -28.4920   47.2411   36.0213 H           1 MOL       0.0584
     65 H12       -27.7044   47.9014   34.6082 H           1 MOL       0.0584
     66 H13       -27.3686   46.1163   32.6159 H           1 MOL       0.0703
     67 H14       -27.9935   45.0384   36.6496 H           1 MOL       0.0703
     68 H15       -26.4174   43.9658   32.1891 H           1 MOL       0.0736
     69 H16       -26.9626   42.9153   36.2281 H           1 MOL       0.0736
     70 H17       -29.7735   48.7112   36.4142 H           1 MOL       0.1842
     71 H18       -32.4153   51.9939   36.0608 H           1 MOL       0.0244
     72 H19       -32.8831   50.4589   35.3435 H           1 MOL       0.0244
     73 H20       -31.6079   51.4254   34.5935 H           1 MOL       0.0244
     74 H21       -32.0951   50.7320   38.2554 H           1 MOL       0.0549
     75 H22       -30.7385   49.6593   38.4724 H           1 MOL       0.0549
     76 H23       -31.0013   47.2620   38.1257 H           1 MOL       0.0703
     77 H24       -34.2570   49.8313   37.3347 H           1 MOL       0.0703
     78 H25       -32.4723   45.3632   37.9717 H           1 MOL       0.0736
     79 H26       -35.7155   47.9233   37.1655 H           1 MOL       0.0736
     80 H27       -31.0292   52.6104   37.5827 H           1 MOL       0.1883
     81 H28       -29.8314   54.4621   37.5589 H           1 MOL       0.0754
     82 H29       -29.7981   53.9004   39.7536 H           1 MOL       0.0544
     83 H30       -28.0786   54.1584   39.4288 H           1 MOL       0.0544
     84 H31       -28.3235   51.2159   41.5103 H           1 MOL       0.1814
     85 H32       -28.4862   52.9067   41.6606 H           1 MOL       0.1814
@<TRIPOS>BOND
     1     1     5  ar
     2     2     1  ar
     3     3     2  ar
     4     6     3   1
     5     3     4  ar
     6     4    11  ar
     7    11    10   1
     8    11     5  ar
     9     7     6   1
    10     8     7   1
    11     8     9   2
    12    13    12   1
    13    13    16   1
    14    14    13   1
    15    14    15   2
    16    16    17   1
    17    17    19  ar
    18    17    18  ar
    19    18    20  ar
    20    20    22  ar
    21    22    23   1
    22    21    22  ar
    23    19    21  ar
    24    23    24   1
    25    24    27  ar
    26    24    26  ar
    27    24    25  ar
    28    29    28   1
    29    29    33   1
    30    31    29   1
    31    29    30   1
    32    31    32   2
    33    33    34   1
    34    34    36  ar
    35    34    35  ar
    36    35    37  ar
    37    37    39  ar
    38    39    40   1
    39    38    39  ar
    40    36    38  ar
    41    40    41   1
    42    41    44  ar
    43    41    43  ar
    44    41    42  ar
    45    46    47   1
    46    46    49   1
    47    45    46   1
    48    49    50   1
    49    50    51   2
    50    50    52  am
    51    47    53  ar
    52    47    48  ar
    53    28    14  am
    54    12     8  am
    55    31    45  am
    56     1    54   1
    57     2    55   1
    58     4    56   1
    59     5    57   1
    60     6    58   1
    61     6    59   1
    62    10    60   1
    63    10    61   1
    64    12    62   1
    65    13    63   1
    66    16    64   1
    67    16    65   1
    68    18    66   1
    69    19    67   1
    70    20    68   1
    71    21    69   1
    72    28    70   1
    73    30    71   1
    74    30    72   1
    75    30    73   1
    76    33    74   1
    77    33    75   1
    78    35    76   1
    79    36    77   1
    80    37    78   1
    81    38    79   1
    82    45    80   1
    83    46    81   1
    84    49    82   1
    85    49    83   1
    86    52    84   1
    87    52    85   1
@<TRIPOS>SUBSTRUCTURE
     1  MOL      1

