@<TRIPOS>MOLECULE
1jyq_ligand_056
    85    87
SMALL
GAST_HUCK
****
This file was generated by PARSER (from files_GN.cpp)

@<TRIPOS>ATOM
      1 C1        -34.3562   43.6077   30.1171 C.ar        1 MOL      -0.0801
      2 C2        -34.1535   42.2252   29.9581 C.ar        1 MOL      -0.0711
      3 C3        -33.7414   41.4243   31.0483 C.ar        1 MOL      -0.0250
      4 C4        -33.5304   42.0444   32.3045 C.ar        1 MOL      -0.0414
      5 C6        -34.1530   44.2100   31.3710 C.ar        1 MOL      -0.0516
      6 C12       -33.5690   39.9600   30.8696 C.3         1 MOL       0.1084
      7 O13       -32.5385   39.6357   29.9267 O.3         1 MOL      -0.2508
      8 C16       -31.2036   39.8357   30.0773 C.2         1 MOL       0.3241
      9 O18       -30.7369   40.3783   31.2253 O.2         1 MOL      -0.3773
     10 N11       -33.5482   44.0085   33.6668 N.pl3       1 MOL      -0.3383
     11 C5        -33.7359   43.4303   32.4684 C.ar        1 MOL       0.0282
     12 N         -30.4120   39.4410   29.0527 N.am        1 MOL      -0.2380
     13 CA        -28.9800   39.4994   28.8895 C.3         1 MOL       0.1484
     14 C         -28.2533   38.6725   29.8653 C.2         1 MOL       0.2046
     15 O         -27.5871   37.7257   29.4610 O.2         1 MOL      -0.3944
     16 CB        -28.4209   40.9399   28.6359 C.3         1 MOL       0.0400
     17 CG        -28.2835   41.8334   29.8185 C.ar        1 MOL      -0.0004
     18 CD1       -27.0922   41.8245   30.5806 C.ar        1 MOL      -0.0239
     19 CD2       -29.3158   42.7231   30.1955 C.ar        1 MOL      -0.0239
     20 CE1       -26.9709   42.6058   31.7445 C.ar        1 MOL       0.0115
     21 CE2       -29.1983   43.5015   31.3614 C.ar        1 MOL       0.0115
     22 CZ        -28.0463   43.4099   32.1693 C.ar        1 MOL       0.1728
     23 OH        -27.9501   44.1449   33.3198 O.3         1 MOL      -0.2040
     24 P         -28.7346   43.5326   34.5187 P.3         1 MOL       0.1348
     25 O1P       -28.0540   42.4277   35.1488 O.co2       1 MOL      -0.6653
     26 O2P       -30.0818   43.1500   34.1799 O.co2       1 MOL      -0.6653
     27 O3P       -28.8516   44.5701   35.5154 O.co2       1 MOL      -0.6653
     28 N         -28.3390   38.9171   31.1680 N.am        1 MOL      -0.2712
     29 CA        -27.8708   38.1462   32.3062 C.3         1 MOL       0.1461
     30 CH3       -28.1225   39.0728   33.5438 C.3         1 MOL      -0.0287
     31 C         -26.4193   37.8795   32.2501 C.2         1 MOL       0.2294
     32 O         -25.9872   36.7501   32.4419 O.2         1 MOL      -0.3416
     33 CB        -28.7697   36.8571   32.5125 C.3         1 MOL       0.0325
     34 CG        -28.7246   35.7874   31.4696 C.ar        1 MOL      -0.0034
     35 CD1       -27.8352   34.6919   31.5868 C.ar        1 MOL      -0.0242
     36 CD2       -29.6188   35.8039   30.3730 C.ar        1 MOL      -0.0242
     37 CE1       -27.7864   33.6880   30.6031 C.ar        1 MOL       0.0115
     38 CE2       -29.5791   34.7958   29.3907 C.ar        1 MOL       0.0115
     39 CZ        -28.6697   33.7234   29.5048 C.ar        1 MOL       0.1728
     40 OH        -28.5909   32.7648   28.5278 O.3         1 MOL      -0.2040
     41 P         -29.5104   31.5321   28.7719 P.3         1 MOL       0.1348
     42 O1P       -30.9088   31.8783   28.7421 O.co2       1 MOL      -0.6653
     43 O2P       -29.2058   30.8398   29.9985 O.co2       1 MOL      -0.6653
     44 O3P       -29.2849   30.5994   27.6982 O.co2       1 MOL      -0.6653
     45 N         -25.5530   38.8654   32.0237 N.am        1 MOL      -0.2663
     46 CA        -24.1280   38.7249   31.8551 C.3         1 MOL       0.1112
     47 C         -23.4444   38.5281   33.1567 C.2         1 MOL       0.0626
     48 O         -22.1468   38.1582   33.1754 O.co2       1 MOL      -0.5664
     49 CB        -23.5114   39.9194   31.0455 C.3         1 MOL       0.0720
     50 CG        -22.7261   39.4954   29.8963 C.2         1 MOL       0.1774
     51 OD1       -23.2927   39.0920   28.8925 O.2         1 MOL      -0.3971
     52 ND2       -21.4153   39.5452   29.8796 N.am        1 MOL      -0.3007
     53 OXT       -23.9787   38.9880   34.3088 O.co2       1 MOL      -0.5664
     54 H1        -34.6570   44.1766   29.3214 H           1 MOL       0.0566
     55 H2        -34.3209   41.8011   29.0424 H           1 MOL       0.0448
     56 H3        -33.2332   41.4870   33.1092 H           1 MOL       0.0451
     57 H4        -34.3085   45.2160   31.4793 H           1 MOL       0.0459
     58 H5        -34.5012   39.5485   30.4816 H           1 MOL       0.0774
     59 H6        -33.3598   39.4594   31.8195 H           1 MOL       0.0774
     60 H7        -33.2707   43.4740   34.4289 H           1 MOL       0.1718
     61 H8        -33.7013   44.9615   33.7765 H           1 MOL       0.1718
     62 H9        -30.8891   39.0508   28.3027 H           1 MOL       0.1902
     63 H10       -28.8376   39.0100   27.9160 H           1 MOL       0.0839
     64 H11       -29.0545   41.4268   27.8875 H           1 MOL       0.0584
     65 H12       -27.4398   40.8471   28.1603 H           1 MOL       0.0584
     66 H13       -26.3090   41.2409   30.2944 H           1 MOL       0.0703
     67 H14       -30.1738   42.7806   29.6383 H           1 MOL       0.0703
     68 H15       -26.1124   42.5643   32.2970 H           1 MOL       0.0736
     69 H16       -29.9721   44.1130   31.6359 H           1 MOL       0.0736
     70 H17       -28.7786   39.7499   31.3945 H           1 MOL       0.1842
     71 H18       -27.7883   38.5947   34.4678 H           1 MOL       0.0244
     72 H19       -29.1851   39.3038   33.6530 H           1 MOL       0.0244
     73 H20       -27.5916   40.0218   33.4401 H           1 MOL       0.0244
     74 H21       -29.8128   37.1642   32.6266 H           1 MOL       0.0549
     75 H22       -28.5033   36.4038   33.4723 H           1 MOL       0.0549
     76 H23       -27.2108   34.6141   32.3919 H           1 MOL       0.0703
     77 H24       -30.3046   36.5554   30.2762 H           1 MOL       0.0703
     78 H25       -27.1137   32.9228   30.6952 H           1 MOL       0.0736
     79 H26       -30.2202   34.8368   28.5949 H           1 MOL       0.0736
     80 H27       -25.9260   39.7499   31.9018 H           1 MOL       0.1883
     81 H28       -23.9742   37.8065   31.2866 H           1 MOL       0.0754
     82 H29       -22.9004   40.5535   31.6986 H           1 MOL       0.0544
     83 H30       -24.3065   40.5605   30.6606 H           1 MOL       0.0544
     84 H31       -20.9320   39.2458   29.0958 H           1 MOL       0.1814
     85 H32       -20.9296   39.8503   30.6579 H           1 MOL       0.1814
@<TRIPOS>BOND
     1     1     5  ar
     2     2     1  ar
     3     3     2  ar
     4     6     3   1
     5     3     4  ar
     6     4    11  ar
     7    11    10   1
     8    11     5  ar
     9     7     6   1
    10     8     7   1
    11     8     9   2
    12    13    12   1
    13    13    16   1
    14    14    13   1
    15    14    15   2
    16    16    17   1
    17    17    19  ar
    18    17    18  ar
    19    18    20  ar
    20    20    22  ar
    21    22    23   1
    22    21    22  ar
    23    19    21  ar
    24    23    24   1
    25    24    27  ar
    26    24    26  ar
    27    24    25  ar
    28    29    28   1
    29    29    33   1
    30    31    29   1
    31    29    30   1
    32    31    32   2
    33    33    34   1
    34    34    36  ar
    35    34    35  ar
    36    35    37  ar
    37    37    39  ar
    38    39    40   1
    39    38    39  ar
    40    36    38  ar
    41    40    41   1
    42    41    44  ar
    43    41    43  ar
    44    41    42  ar
    45    46    47   1
    46    46    49   1
    47    45    46   1
    48    49    50   1
    49    50    51   2
    50    50    52  am
    51    47    53  ar
    52    47    48  ar
    53    28    14  am
    54    12     8  am
    55    31    45  am
    56     1    54   1
    57     2    55   1
    58     4    56   1
    59     5    57   1
    60     6    58   1
    61     6    59   1
    62    10    60   1
    63    10    61   1
    64    12    62   1
    65    13    63   1
    66    16    64   1
    67    16    65   1
    68    18    66   1
    69    19    67   1
    70    20    68   1
    71    21    69   1
    72    28    70   1
    73    30    71   1
    74    30    72   1
    75    30    73   1
    76    33    74   1
    77    33    75   1
    78    35    76   1
    79    36    77   1
    80    37    78   1
    81    38    79   1
    82    45    80   1
    83    46    81   1
    84    49    82   1
    85    49    83   1
    86    52    84   1
    87    52    85   1
@<TRIPOS>SUBSTRUCTURE
     1  MOL      1

