@<TRIPOS>MOLECULE
1jyq_ligand_085
    85    87
SMALL
GAST_HUCK
****
This file was generated by PARSER (from files_GN.cpp)

@<TRIPOS>ATOM
      1 C1        -25.0850   43.3490   32.6917 C.ar        1 MOL      -0.0801
      2 C2        -25.7849   44.4547   32.1751 C.ar        1 MOL      -0.0711
      3 C3        -26.8372   44.2705   31.2454 C.ar        1 MOL      -0.0250
      4 C4        -27.1495   42.9550   30.8280 C.ar        1 MOL      -0.0414
      5 C6        -25.4137   42.0477   32.2778 C.ar        1 MOL      -0.0516
      6 C12       -27.5941   45.4411   30.7221 C.3         1 MOL       0.1084
      7 O13       -28.0791   46.3093   31.7581 O.3         1 MOL      -0.2508
      8 C16       -28.6729   45.9842   32.9360 C.2         1 MOL       0.3241
      9 O18       -28.8344   44.6866   33.2953 O.2         1 MOL      -0.3773
     10 N11       -26.7602   40.6029   30.9337 N.pl3       1 MOL      -0.3383
     11 C5        -26.4442   41.8433   31.3371 C.ar        1 MOL       0.0282
     12 N         -28.9413   47.0067   33.7839 N.am        1 MOL      -0.2380
     13 CA        -29.1102   46.8999   35.2056 C.3         1 MOL       0.1484
     14 C         -30.1753   47.7886   35.6671 C.2         1 MOL       0.2046
     15 O         -31.1145   47.2700   36.2626 O.2         1 MOL      -0.3944
     16 CB        -27.7381   47.0997   35.9356 C.3         1 MOL       0.0400
     17 CG        -27.1061   48.4493   35.8900 C.ar        1 MOL      -0.0004
     18 CD1       -26.9291   49.2123   37.0740 C.ar        1 MOL      -0.0239
     19 CD2       -26.6583   49.0026   34.6662 C.ar        1 MOL      -0.0239
     20 CE1       -26.3684   50.4985   37.0226 C.ar        1 MOL       0.0115
     21 CE2       -26.1414   50.3056   34.6105 C.ar        1 MOL       0.0115
     22 CZ        -26.0320   51.0764   35.7826 C.ar        1 MOL       0.1728
     23 OH        -25.4884   52.3224   35.7143 O.3         1 MOL      -0.2040
     24 P         -26.5402   53.4745   35.5552 P.3         1 MOL       0.1348
     25 O1P       -25.9209   54.4749   34.7205 O.co2       1 MOL      -0.6653
     26 O2P       -26.8415   54.1427   36.8075 O.co2       1 MOL      -0.6653
     27 O3P       -27.7621   53.1119   34.8778 O.co2       1 MOL      -0.6653
     28 N         -30.1280   49.0966   35.4441 N.am        1 MOL      -0.2712
     29 CA        -31.0258   50.2025   35.7918 C.3         1 MOL       0.1461
     30 CH3       -31.0431   51.0766   34.4892 C.3         1 MOL      -0.0287
     31 C         -30.4170   51.0039   36.8775 C.2         1 MOL       0.2294
     32 O         -29.4093   50.6019   37.4558 O.2         1 MOL      -0.3416
     33 CB        -32.4903   49.7268   36.1642 C.3         1 MOL       0.0325
     34 CG        -33.5837   50.7468   36.2426 C.ar        1 MOL      -0.0034
     35 CD1       -34.2144   51.2307   35.0709 C.ar        1 MOL      -0.0242
     36 CD2       -34.0245   51.2505   37.4915 C.ar        1 MOL      -0.0242
     37 CE1       -35.2145   52.2196   35.1442 C.ar        1 MOL       0.0115
     38 CE2       -35.0088   52.2531   37.5631 C.ar        1 MOL       0.0115
     39 CZ        -35.5826   52.7765   36.3880 C.ar        1 MOL       0.1728
     40 OH        -36.5622   53.7273   36.4984 O.3         1 MOL      -0.2040
     41 P         -36.0580   55.1902   36.3100 P.3         1 MOL       0.1348
     42 O1P       -34.7950   55.4950   36.9381 O.co2       1 MOL      -0.6653
     43 O2P       -37.0392   56.0521   36.9266 O.co2       1 MOL      -0.6653
     44 O3P       -36.0121   55.5544   34.9149 O.co2       1 MOL      -0.6653
     45 N         -30.9490   52.1759   37.2307 N.am        1 MOL      -0.2663
     46 CA        -30.4915   53.1138   38.2158 C.3         1 MOL       0.1112
     47 C         -29.3631   53.9037   37.6647 C.2         1 MOL       0.0626
     48 O         -28.4915   54.5503   38.4719 O.co2       1 MOL      -0.5664
     49 CB        -30.2194   52.4455   39.6105 C.3         1 MOL       0.0720
     50 CG        -30.9904   53.0207   40.7046 C.2         1 MOL       0.1774
     51 OD1       -32.2061   52.8725   40.7297 O.2         1 MOL      -0.3971
     52 ND2       -30.4316   53.6567   41.7126 N.am        1 MOL      -0.3007
     53 OXT       -29.4608   54.3676   36.3992 O.co2       1 MOL      -0.5664
     54 H1        -24.3405   43.4895   33.3766 H           1 MOL       0.0566
     55 H2        -25.5419   45.3914   32.5001 H           1 MOL       0.0448
     56 H3        -27.9018   42.7997   30.1465 H           1 MOL       0.0451
     57 H4        -24.8956   41.2498   32.6528 H           1 MOL       0.0459
     58 H5        -28.4426   45.1293   30.1096 H           1 MOL       0.0774
     59 H6        -26.9284   46.0304   30.0876 H           1 MOL       0.0774
     60 H7        -27.4729   40.4680   30.2900 H           1 MOL       0.1718
     61 H8        -26.2688   39.8416   31.2767 H           1 MOL       0.1718
     62 H9        -28.8208   47.9021   33.4271 H           1 MOL       0.1902
     63 H10       -29.4003   45.8722   35.4455 H           1 MOL       0.0839
     64 H11       -27.0171   46.3973   35.5070 H           1 MOL       0.0584
     65 H12       -27.8782   46.7825   36.9749 H           1 MOL       0.0584
     66 H13       -27.1761   48.8217   37.9856 H           1 MOL       0.0703
     67 H14       -26.6972   48.4557   33.8054 H           1 MOL       0.0703
     68 H15       -26.2450   51.0366   37.8853 H           1 MOL       0.0736
     69 H16       -25.8479   50.6880   33.7103 H           1 MOL       0.0736
     70 H17       -29.3114   49.3902   35.0012 H           1 MOL       0.1842
     71 H18       -31.6267   51.9946   34.6311 H           1 MOL       0.0244
     72 H19       -31.4826   50.5140   33.6533 H           1 MOL       0.0244
     73 H20       -30.0219   51.3741   34.2022 H           1 MOL       0.0244
     74 H21       -32.4531   49.2338   37.1327 H           1 MOL       0.0549
     75 H22       -32.8040   48.9701   35.4429 H           1 MOL       0.0549
     76 H23       -33.9563   50.8575   34.1538 H           1 MOL       0.0703
     77 H24       -33.6134   50.9042   38.3652 H           1 MOL       0.0703
     78 H25       -35.6554   52.5597   34.2805 H           1 MOL       0.0736
     79 H26       -35.2898   52.6230   38.4779 H           1 MOL       0.0736
     80 H27       -31.7473   52.4462   36.7530 H           1 MOL       0.1883
     81 H28       -31.3228   53.8182   38.3198 H           1 MOL       0.0754
     82 H29       -29.1464   52.4871   39.8508 H           1 MOL       0.0544
     83 H30       -30.4749   51.3759   39.5839 H           1 MOL       0.0544
     84 H31       -30.9913   53.9902   42.4348 H           1 MOL       0.1814
     85 H32       -29.4708   53.8064   41.7460 H           1 MOL       0.1814
@<TRIPOS>BOND
     1     1     5  ar
     2     2     1  ar
     3     3     2  ar
     4     6     3   1
     5     3     4  ar
     6     4    11  ar
     7    11    10   1
     8    11     5  ar
     9     7     6   1
    10     8     7   1
    11     8     9   2
    12    13    12   1
    13    13    16   1
    14    14    13   1
    15    14    15   2
    16    16    17   1
    17    17    19  ar
    18    17    18  ar
    19    18    20  ar
    20    20    22  ar
    21    22    23   1
    22    21    22  ar
    23    19    21  ar
    24    23    24   1
    25    24    27  ar
    26    24    26  ar
    27    24    25  ar
    28    29    28   1
    29    29    33   1
    30    31    29   1
    31    29    30   1
    32    31    32   2
    33    33    34   1
    34    34    36  ar
    35    34    35  ar
    36    35    37  ar
    37    37    39  ar
    38    39    40   1
    39    38    39  ar
    40    36    38  ar
    41    40    41   1
    42    41    44  ar
    43    41    43  ar
    44    41    42  ar
    45    46    47   1
    46    46    49   1
    47    45    46   1
    48    49    50   1
    49    50    51   2
    50    50    52  am
    51    47    53  ar
    52    47    48  ar
    53    28    14  am
    54    12     8  am
    55    31    45  am
    56     1    54   1
    57     2    55   1
    58     4    56   1
    59     5    57   1
    60     6    58   1
    61     6    59   1
    62    10    60   1
    63    10    61   1
    64    12    62   1
    65    13    63   1
    66    16    64   1
    67    16    65   1
    68    18    66   1
    69    19    67   1
    70    20    68   1
    71    21    69   1
    72    28    70   1
    73    30    71   1
    74    30    72   1
    75    30    73   1
    76    33    74   1
    77    33    75   1
    78    35    76   1
    79    36    77   1
    80    37    78   1
    81    38    79   1
    82    45    80   1
    83    46    81   1
    84    49    82   1
    85    49    83   1
    86    52    84   1
    87    52    85   1
@<TRIPOS>SUBSTRUCTURE
     1  MOL      1

