@<TRIPOS>MOLECULE
1jyq_ligand_067
    85    87
SMALL
GAST_HUCK
****
This file was generated by PARSER (from files_GN.cpp)

@<TRIPOS>ATOM
      1 C1        -31.4112   43.7077   39.3209 C.ar        1 MOL      -0.0801
      2 C2        -31.8231   44.4654   40.4295 C.ar        1 MOL      -0.0711
      3 C3        -30.8734   45.0700   41.2840 C.ar        1 MOL      -0.0250
      4 C4        -29.4980   44.8987   41.0025 C.ar        1 MOL      -0.0414
      5 C6        -30.0417   43.5354   39.0532 C.ar        1 MOL      -0.0516
      6 C12       -31.3063   45.8971   42.4375 C.3         1 MOL       0.1084
      7 O13       -31.0835   47.2800   42.1318 O.3         1 MOL      -0.2508
      8 C16       -32.0182   48.2488   41.9456 C.2         1 MOL       0.3241
      9 O18       -33.3393   47.9494   42.0105 O.2         1 MOL      -0.3773
     10 N11       -27.7679   43.9488   39.6539 N.pl3       1 MOL      -0.3383
     11 C5        -29.0806   44.1265   39.8980 C.ar        1 MOL       0.0282
     12 N         -31.5779   49.4905   41.6490 N.am        1 MOL      -0.2380
     13 CA        -32.3966   50.6275   41.3167 C.3         1 MOL       0.1484
     14 C         -32.0522   51.0874   39.9695 C.2         1 MOL       0.2046
     15 O         -31.9995   52.2867   39.7181 O.2         1 MOL      -0.3944
     16 CB        -32.2111   51.6731   42.4656 C.3         1 MOL       0.0400
     17 CG        -33.0463   52.9030   42.3459 C.ar        1 MOL      -0.0004
     18 CD1       -34.4524   52.8308   42.4782 C.ar        1 MOL      -0.0239
     19 CD2       -32.4523   54.1715   42.1495 C.ar        1 MOL      -0.0239
     20 CE1       -35.2431   53.9924   42.4087 C.ar        1 MOL       0.0115
     21 CE2       -33.2419   55.3346   42.0749 C.ar        1 MOL       0.0115
     22 CZ        -34.6472   55.2514   42.1864 C.ar        1 MOL       0.1728
     23 OH        -35.4020   56.3931   42.1958 O.3         1 MOL      -0.2040
     24 P         -35.9342   56.8140   40.7944 P.3         1 MOL       0.1348
     25 O1P       -36.6629   58.0477   40.9522 O.co2       1 MOL      -0.6653
     26 O2P       -36.8589   55.8496   40.2521 O.co2       1 MOL      -0.6653
     27 O3P       -34.8720   57.0685   39.8555 O.co2       1 MOL      -0.6653
     28 N         -31.8273   50.1921   39.0074 N.am        1 MOL      -0.2712
     29 CA        -31.5252   50.3724   37.6012 C.3         1 MOL       0.1461
     30 CH3       -31.2679   48.9208   37.0814 C.3         1 MOL      -0.0287
     31 C         -30.3145   51.1719   37.3076 C.2         1 MOL       0.2294
     32 O         -29.9211   51.2392   36.1489 O.2         1 MOL      -0.3416
     33 CB        -32.8224   50.9116   36.8808 C.3         1 MOL       0.0325
     34 CG        -32.9990   52.3918   36.7731 C.ar        1 MOL      -0.0034
     35 CD1       -33.9878   53.0720   37.5277 C.ar        1 MOL      -0.0242
     36 CD2       -32.2370   53.1386   35.8439 C.ar        1 MOL      -0.0242
     37 CE1       -34.1817   54.4604   37.3737 C.ar        1 MOL       0.0115
     38 CE2       -32.4250   54.5243   35.6948 C.ar        1 MOL       0.0115
     39 CZ        -33.4134   55.1937   36.4425 C.ar        1 MOL       0.1728
     40 OH        -33.5626   56.5541   36.3234 O.3         1 MOL      -0.2040
     41 P         -34.6800   56.9943   35.3327 P.3         1 MOL       0.1348
     42 O1P       -34.6464   58.4347   35.2493 O.co2       1 MOL      -0.6653
     43 O2P       -36.0009   56.6273   35.7848 O.co2       1 MOL      -0.6653
     44 O3P       -34.4627   56.4933   33.9953 O.co2       1 MOL      -0.6653
     45 N         -29.6421   51.8218   38.2587 N.am        1 MOL      -0.2663
     46 CA        -28.6417   52.8499   38.1119 C.3         1 MOL       0.1112
     47 C         -29.3028   54.1558   37.8337 C.2         1 MOL       0.0626
     48 O         -29.6267   54.5360   36.5825 O.co2       1 MOL      -0.5664
     49 CB        -27.4405   52.4604   37.1720 C.3         1 MOL       0.0720
     50 CG        -27.1348   53.3949   36.1007 C.2         1 MOL       0.1774
     51 OD1       -26.8754   54.5618   36.3631 O.2         1 MOL      -0.3971
     52 ND2       -27.1953   53.0533   34.8332 N.am        1 MOL      -0.3007
     53 OXT       -29.7022   54.9668   38.8511 O.co2       1 MOL      -0.5664
     54 H1        -32.1068   43.2777   38.7031 H           1 MOL       0.0566
     55 H2        -32.8265   44.5812   40.6004 H           1 MOL       0.0448
     56 H3        -28.7961   45.3296   41.6068 H           1 MOL       0.0451
     57 H4        -29.7477   42.9761   38.2464 H           1 MOL       0.0459
     58 H5        -30.7263   45.6386   43.3231 H           1 MOL       0.0774
     59 H6        -32.3558   45.7212   42.6828 H           1 MOL       0.0774
     60 H7        -27.1080   44.3307   40.2516 H           1 MOL       0.1718
     61 H8        -27.4822   43.4108   38.8974 H           1 MOL       0.1718
     62 H9        -30.6156   49.6187   41.6217 H           1 MOL       0.1902
     63 H10       -33.4495   50.3438   41.2850 H           1 MOL       0.0839
     64 H11       -31.1494   51.9362   42.5244 H           1 MOL       0.0584
     65 H12       -32.4654   51.2006   43.4175 H           1 MOL       0.0584
     66 H13       -34.9111   51.9331   42.6459 H           1 MOL       0.0703
     67 H14       -31.4353   54.2619   42.0639 H           1 MOL       0.0703
     68 H15       -36.2553   53.9256   42.5271 H           1 MOL       0.0736
     69 H16       -32.7903   56.2431   41.9459 H           1 MOL       0.0736
     70 H17       -31.8817   49.2661   39.3030 H           1 MOL       0.1842
     71 H18       -31.0753   48.9077   36.0060 H           1 MOL       0.0244
     72 H19       -32.1376   48.2794   37.2686 H           1 MOL       0.0244
     73 H20       -30.4090   48.4682   37.5874 H           1 MOL       0.0244
     74 H21       -33.6971   50.4834   37.3868 H           1 MOL       0.0549
     75 H22       -32.8670   50.5040   35.8653 H           1 MOL       0.0549
     76 H23       -34.5708   52.5619   38.2018 H           1 MOL       0.0703
     77 H24       -31.5421   52.6761   35.2591 H           1 MOL       0.0703
     78 H25       -34.8877   54.9387   37.9374 H           1 MOL       0.0736
     79 H26       -31.8468   55.0420   35.0281 H           1 MOL       0.0736
     80 H27       -29.9149   51.6484   39.1749 H           1 MOL       0.1883
     81 H28       -28.2174   52.9424   39.1123 H           1 MOL       0.0754
     82 H29       -27.6195   51.4706   36.7417 H           1 MOL       0.0544
     83 H30       -26.5319   52.3509   37.7730 H           1 MOL       0.0544
     84 H31       -27.0666   53.7287   34.1495 H           1 MOL       0.1814
     85 H32       -27.4146   52.1436   34.5771 H           1 MOL       0.1814
@<TRIPOS>BOND
     1     1     5  ar
     2     2     1  ar
     3     3     2  ar
     4     6     3   1
     5     3     4  ar
     6     4    11  ar
     7    11    10   1
     8    11     5  ar
     9     7     6   1
    10     8     7   1
    11     8     9   2
    12    13    12   1
    13    13    16   1
    14    14    13   1
    15    14    15   2
    16    16    17   1
    17    17    19  ar
    18    17    18  ar
    19    18    20  ar
    20    20    22  ar
    21    22    23   1
    22    21    22  ar
    23    19    21  ar
    24    23    24   1
    25    24    27  ar
    26    24    26  ar
    27    24    25  ar
    28    29    28   1
    29    29    33   1
    30    31    29   1
    31    29    30   1
    32    31    32   2
    33    33    34   1
    34    34    36  ar
    35    34    35  ar
    36    35    37  ar
    37    37    39  ar
    38    39    40   1
    39    38    39  ar
    40    36    38  ar
    41    40    41   1
    42    41    44  ar
    43    41    43  ar
    44    41    42  ar
    45    46    47   1
    46    46    49   1
    47    45    46   1
    48    49    50   1
    49    50    51   2
    50    50    52  am
    51    47    53  ar
    52    47    48  ar
    53    28    14  am
    54    12     8  am
    55    31    45  am
    56     1    54   1
    57     2    55   1
    58     4    56   1
    59     5    57   1
    60     6    58   1
    61     6    59   1
    62    10    60   1
    63    10    61   1
    64    12    62   1
    65    13    63   1
    66    16    64   1
    67    16    65   1
    68    18    66   1
    69    19    67   1
    70    20    68   1
    71    21    69   1
    72    28    70   1
    73    30    71   1
    74    30    72   1
    75    30    73   1
    76    33    74   1
    77    33    75   1
    78    35    76   1
    79    36    77   1
    80    37    78   1
    81    38    79   1
    82    45    80   1
    83    46    81   1
    84    49    82   1
    85    49    83   1
    86    52    84   1
    87    52    85   1
@<TRIPOS>SUBSTRUCTURE
     1  MOL      1

