@<TRIPOS>MOLECULE
1jyq_ligand_044
    85    87
SMALL
GAST_HUCK
****
This file was generated by PARSER (from files_GN.cpp)

@<TRIPOS>ATOM
      1 C1        -24.1243   48.7478   29.8705 C.ar        1 MOL      -0.0801
      2 C2        -24.2662   48.3078   31.1991 C.ar        1 MOL      -0.0711
      3 C3        -25.4433   48.5947   31.9304 C.ar        1 MOL      -0.0250
      4 C4        -26.4776   49.3179   31.2936 C.ar        1 MOL      -0.0414
      5 C6        -25.1607   49.4671   29.2494 C.ar        1 MOL      -0.0516
      6 C12       -25.6320   48.1057   33.3199 C.3         1 MOL       0.1084
      7 O13       -26.6798   47.1284   33.3618 O.3         1 MOL      -0.2508
      8 C16       -26.7759   46.0155   32.5829 C.2         1 MOL       0.3241
      9 O18       -25.7720   45.6711   31.7343 O.2         1 MOL      -0.3773
     10 N11       -27.3682   50.3834   29.3610 N.pl3       1 MOL      -0.3383
     11 C5        -26.3509   49.7387   29.9556 C.ar        1 MOL       0.0282
     12 N         -27.9343   45.3235   32.6297 N.am        1 MOL      -0.2380
     13 CA        -28.2975   44.2000   31.8082 C.3         1 MOL       0.1484
     14 C         -27.5624   42.9691   32.1271 C.2         1 MOL       0.2046
     15 O         -26.6747   42.9708   32.9711 O.2         1 MOL      -0.3944
     16 CB        -28.2939   44.5667   30.2722 C.3         1 MOL       0.0400
     17 CG        -29.5710   45.1095   29.7152 C.ar        1 MOL      -0.0004
     18 CD1       -30.8075   44.4451   29.9040 C.ar        1 MOL      -0.0239
     19 CD2       -29.5625   46.2865   28.9229 C.ar        1 MOL      -0.0239
     20 CE1       -31.9975   44.9622   29.3625 C.ar        1 MOL       0.0115
     21 CE2       -30.7480   46.7891   28.3600 C.ar        1 MOL       0.0115
     22 CZ        -31.9747   46.1233   28.5635 C.ar        1 MOL       0.1728
     23 OH        -33.1454   46.6447   28.0834 O.3         1 MOL      -0.2040
     24 P         -33.5249   46.1474   26.6622 P.3         1 MOL       0.1348
     25 O1P       -33.6114   44.7117   26.5656 O.co2       1 MOL      -0.6653
     26 O2P       -32.6558   46.6608   25.6263 O.co2       1 MOL      -0.6653
     27 O3P       -34.8521   46.6481   26.3848 O.co2       1 MOL      -0.6653
     28 N         -27.9385   41.8306   31.5406 N.am        1 MOL      -0.2712
     29 CA        -27.4798   40.4702   31.7229 C.3         1 MOL       0.1461
     30 CH3       -28.0330   39.9798   33.1032 C.3         1 MOL      -0.0287
     31 C         -26.0106   40.3309   31.7000 C.2         1 MOL       0.2294
     32 O         -25.2856   41.3189   31.6232 O.2         1 MOL      -0.3416
     33 CB        -28.1547   39.6040   30.5851 C.3         1 MOL       0.0325
     34 CG        -27.5607   39.6189   29.2106 C.ar        1 MOL      -0.0034
     35 CD1       -27.5174   40.7996   28.4346 C.ar        1 MOL      -0.0242
     36 CD2       -27.1302   38.4139   28.6010 C.ar        1 MOL      -0.0242
     37 CE1       -27.0303   40.7891   27.1143 C.ar        1 MOL       0.0115
     38 CE2       -26.6624   38.3928   27.2737 C.ar        1 MOL       0.0115
     39 CZ        -26.5752   39.5886   26.5319 C.ar        1 MOL       0.1728
     40 OH        -26.1288   39.5906   25.2373 O.3         1 MOL      -0.2040
     41 P         -24.5785   39.7185   25.1172 P.3         1 MOL       0.1348
     42 O1P       -24.2347   39.9480   23.7351 O.co2       1 MOL      -0.6653
     43 O2P       -23.9330   38.4869   25.5082 O.co2       1 MOL      -0.6653
     44 O3P       -24.0394   40.8277   25.8702 O.co2       1 MOL      -0.6653
     45 N         -25.4641   39.1201   31.7241 N.am        1 MOL      -0.2663
     46 CA        -24.0716   38.7565   31.7501 C.3         1 MOL       0.1112
     47 C         -23.4672   38.8239   33.0995 C.2         1 MOL       0.0626
     48 O         -24.1576   39.2418   34.1836 O.co2       1 MOL      -0.5664
     49 CB        -23.1612   39.4790   30.7097 C.3         1 MOL       0.0720
     50 CG        -23.5641   39.2801   29.3330 C.2         1 MOL       0.1774
     51 OD1       -23.5708   40.2095   28.5375 O.2         1 MOL      -0.3971
     52 ND2       -23.8911   38.0857   28.8945 N.am        1 MOL      -0.3007
     53 OXT       -22.2727   38.2245   33.3123 O.co2       1 MOL      -0.5664
     54 H1        -23.2689   48.5338   29.3545 H           1 MOL       0.0566
     55 H2        -23.5103   47.7699   31.6273 H           1 MOL       0.0448
     56 H3        -27.3458   49.5160   31.7994 H           1 MOL       0.0451
     57 H4        -25.0492   49.7825   28.2835 H           1 MOL       0.0459
     58 H5        -25.9181   48.9458   33.9519 H           1 MOL       0.0774
     59 H6        -24.7198   47.6736   33.7358 H           1 MOL       0.0774
     60 H7        -28.1862   50.5559   29.8557 H           1 MOL       0.1718
     61 H8        -27.2947   50.6709   28.4373 H           1 MOL       0.1718
     62 H9        -28.6089   45.6447   33.2461 H           1 MOL       0.1902
     63 H10       -29.3255   43.9887   32.1071 H           1 MOL       0.0839
     64 H11       -28.0431   43.6908   29.6726 H           1 MOL       0.0584
     65 H12       -27.4827   45.2738   30.0730 H           1 MOL       0.0584
     66 H13       -30.8689   43.5930   30.4627 H           1 MOL       0.0703
     67 H14       -28.6885   46.7862   28.7464 H           1 MOL       0.0703
     68 H15       -32.8858   44.4886   29.5500 H           1 MOL       0.0736
     69 H16       -30.7194   47.6449   27.7987 H           1 MOL       0.0736
     70 H17       -28.6452   41.9303   30.8923 H           1 MOL       0.1842
     71 H18       -27.7747   38.9321   33.2887 H           1 MOL       0.0244
     72 H19       -29.1249   40.0657   33.1343 H           1 MOL       0.0244
     73 H20       -27.6295   40.5694   33.9267 H           1 MOL       0.0244
     74 H21       -29.2010   39.9041   30.4772 H           1 MOL       0.0549
     75 H22       -28.1978   38.5666   30.9279 H           1 MOL       0.0549
     76 H23       -27.8510   41.6813   28.8160 H           1 MOL       0.0703
     77 H24       -27.1604   37.5303   29.1187 H           1 MOL       0.0703
     78 H25       -27.0069   41.6570   26.5737 H           1 MOL       0.0736
     79 H26       -26.3739   37.5084   26.8553 H           1 MOL       0.0736
     80 H27       -26.0880   38.3727   31.7200 H           1 MOL       0.1883
     81 H28       -24.0638   37.6950   31.5017 H           1 MOL       0.0754
     82 H29       -22.1360   39.1057   30.8025 H           1 MOL       0.0544
     83 H30       -23.1226   40.5467   30.9377 H           1 MOL       0.0544
     84 H31       -24.1316   37.9574   27.9629 H           1 MOL       0.1814
     85 H32       -23.9168   37.3295   29.5018 H           1 MOL       0.1814
@<TRIPOS>BOND
     1     1     5  ar
     2     2     1  ar
     3     3     2  ar
     4     6     3   1
     5     3     4  ar
     6     4    11  ar
     7    11    10   1
     8    11     5  ar
     9     7     6   1
    10     8     7   1
    11     8     9   2
    12    13    12   1
    13    13    16   1
    14    14    13   1
    15    14    15   2
    16    16    17   1
    17    17    19  ar
    18    17    18  ar
    19    18    20  ar
    20    20    22  ar
    21    22    23   1
    22    21    22  ar
    23    19    21  ar
    24    23    24   1
    25    24    27  ar
    26    24    26  ar
    27    24    25  ar
    28    29    28   1
    29    29    33   1
    30    31    29   1
    31    29    30   1
    32    31    32   2
    33    33    34   1
    34    34    36  ar
    35    34    35  ar
    36    35    37  ar
    37    37    39  ar
    38    39    40   1
    39    38    39  ar
    40    36    38  ar
    41    40    41   1
    42    41    44  ar
    43    41    43  ar
    44    41    42  ar
    45    46    47   1
    46    46    49   1
    47    45    46   1
    48    49    50   1
    49    50    51   2
    50    50    52  am
    51    47    53  ar
    52    47    48  ar
    53    28    14  am
    54    12     8  am
    55    31    45  am
    56     1    54   1
    57     2    55   1
    58     4    56   1
    59     5    57   1
    60     6    58   1
    61     6    59   1
    62    10    60   1
    63    10    61   1
    64    12    62   1
    65    13    63   1
    66    16    64   1
    67    16    65   1
    68    18    66   1
    69    19    67   1
    70    20    68   1
    71    21    69   1
    72    28    70   1
    73    30    71   1
    74    30    72   1
    75    30    73   1
    76    33    74   1
    77    33    75   1
    78    35    76   1
    79    36    77   1
    80    37    78   1
    81    38    79   1
    82    45    80   1
    83    46    81   1
    84    49    82   1
    85    49    83   1
    86    52    84   1
    87    52    85   1
@<TRIPOS>SUBSTRUCTURE
     1  MOL      1

