@<TRIPOS>MOLECULE
1jyq_ligand_078
    85    87
SMALL
GAST_HUCK
****
This file was generated by PARSER (from files_GN.cpp)

@<TRIPOS>ATOM
      1 C1        -29.3969   44.9137   30.3821 C.ar        1 MOL      -0.0801
      2 C2        -29.9095   46.1651   30.7721 C.ar        1 MOL      -0.0711
      3 C3        -30.8401   46.2637   31.8319 C.ar        1 MOL      -0.0250
      4 C4        -31.2408   45.0811   32.4974 C.ar        1 MOL      -0.0414
      5 C6        -29.8073   43.7464   31.0463 C.ar        1 MOL      -0.0516
      6 C12       -31.3586   47.5957   32.2462 C.3         1 MOL       0.1084
      7 O13       -30.5203   48.2273   33.2255 O.3         1 MOL      -0.2508
      8 C16       -30.2213   47.7712   34.4697 C.2         1 MOL       0.3241
      9 O18       -30.7242   46.5918   34.9116 O.2         1 MOL      -0.3773
     10 N11       -31.1208   42.7043   32.7408 N.pl3       1 MOL      -0.3383
     11 C5        -30.7296   43.8246   32.1082 C.ar        1 MOL       0.0282
     12 N         -29.3868   48.5195   35.2244 N.am        1 MOL      -0.2380
     13 CA        -28.8127   48.1235   36.4807 C.3         1 MOL       0.1484
     14 C         -29.1791   49.0897   37.5216 C.2         1 MOL       0.2046
     15 O         -28.3127   49.6812   38.1568 O.2         1 MOL      -0.3944
     16 CB        -27.2713   47.8816   36.3038 C.3         1 MOL       0.0400
     17 CG        -26.8066   47.4461   34.9475 C.ar        1 MOL      -0.0004
     18 CD1       -27.4766   46.4311   34.2211 C.ar        1 MOL      -0.0239
     19 CD2       -25.6630   48.0399   34.3574 C.ar        1 MOL      -0.0239
     20 CE1       -27.0461   46.0547   32.9308 C.ar        1 MOL       0.0115
     21 CE2       -25.2231   47.6562   33.0800 C.ar        1 MOL       0.0115
     22 CZ        -25.9309   46.6882   32.3410 C.ar        1 MOL       0.1728
     23 OH        -25.4536   46.3012   31.1160 O.3         1 MOL      -0.2040
     24 P         -25.9144   47.1993   29.9310 P.3         1 MOL       0.1348
     25 O1P       -27.0719   46.6618   29.2595 O.co2       1 MOL      -0.6653
     26 O2P       -24.8407   47.2106   28.9684 O.co2       1 MOL      -0.6653
     27 O3P       -26.1495   48.5803   30.2898 O.co2       1 MOL      -0.6653
     28 N         -30.4600   49.3379   37.7884 N.am        1 MOL      -0.2712
     29 CA        -31.0110   50.2389   38.7794 C.3         1 MOL       0.1461
     30 CH3       -32.3044   50.8488   38.1497 C.3         1 MOL      -0.0287
     31 C         -30.0762   51.3501   39.0577 C.2         1 MOL       0.2294
     32 O         -29.7692   51.6185   40.2117 O.2         1 MOL      -0.3416
     33 CB        -31.3741   49.4265   40.0802 C.3         1 MOL       0.0325
     34 CG        -32.2058   48.1988   39.9016 C.ar        1 MOL      -0.0034
     35 CD1       -31.6017   46.9428   39.6559 C.ar        1 MOL      -0.0242
     36 CD2       -33.6121   48.2569   40.0446 C.ar        1 MOL      -0.0242
     37 CE1       -32.3849   45.7791   39.5416 C.ar        1 MOL       0.0115
     38 CE2       -34.3918   47.0935   39.9322 C.ar        1 MOL       0.0115
     39 CZ        -33.7834   45.8441   39.7031 C.ar        1 MOL       0.1728
     40 OH        -34.5759   44.7360   39.5689 O.3         1 MOL      -0.2040
     41 P         -34.8280   43.9501   40.8841 P.3         1 MOL       0.1348
     42 O1P       -33.6277   43.3015   41.3581 O.co2       1 MOL      -0.6653
     43 O2P       -35.7759   42.9035   40.5719 O.co2       1 MOL      -0.6653
     44 O3P       -35.4150   44.7450   41.9390 O.co2       1 MOL      -0.6653
     45 N         -29.5245   52.0366   38.0604 N.am        1 MOL      -0.2663
     46 CA        -28.5583   53.0948   38.1761 C.3         1 MOL       0.1112
     47 C         -29.2228   54.3540   37.7719 C.2         1 MOL       0.0626
     48 O         -29.9898   54.3545   36.6593 O.co2       1 MOL      -0.5664
     49 CB        -27.2572   52.7298   37.3850 C.3         1 MOL       0.0720
     50 CG        -27.0872   53.4078   36.1110 C.2         1 MOL       0.1774
     51 OD1       -26.8144   54.6016   36.0937 O.2         1 MOL      -0.3971
     52 ND2       -27.2769   52.8085   34.9575 N.am        1 MOL      -0.3007
     53 OXT       -28.6028   55.5190   38.0565 O.co2       1 MOL      -0.5664
     54 H1        -28.7264   44.8503   29.6141 H           1 MOL       0.0566
     55 H2        -29.5947   47.0058   30.2847 H           1 MOL       0.0448
     56 H3        -31.9054   45.1298   33.2750 H           1 MOL       0.0451
     57 H4        -29.4343   42.8408   30.7526 H           1 MOL       0.0459
     58 H5        -32.3741   47.5239   32.6469 H           1 MOL       0.0774
     59 H6        -31.3982   48.2437   31.3679 H           1 MOL       0.0774
     60 H7        -31.7594   42.7506   33.4710 H           1 MOL       0.1718
     61 H8        -30.7689   41.8421   32.4661 H           1 MOL       0.1718
     62 H9        -29.1090   49.3761   34.8667 H           1 MOL       0.1902
     63 H10       -29.2389   47.1684   36.8001 H           1 MOL       0.0839
     64 H11       -26.9539   47.1221   37.0251 H           1 MOL       0.0584
     65 H12       -26.7533   48.8053   36.5800 H           1 MOL       0.0584
     66 H13       -28.2920   45.9607   34.6246 H           1 MOL       0.0703
     67 H14       -25.1340   48.7562   34.8565 H           1 MOL       0.0703
     68 H15       -27.5441   45.3208   32.4193 H           1 MOL       0.0736
     69 H16       -24.3883   48.0903   32.6799 H           1 MOL       0.0736
     70 H17       -31.1090   48.8822   37.2215 H           1 MOL       0.1842
     71 H18       -32.8088   51.5066   38.8597 H           1 MOL       0.0244
     72 H19       -33.0032   50.0647   37.8546 H           1 MOL       0.0244
     73 H20       -32.0738   51.4268   37.2518 H           1 MOL       0.0244
     74 H21       -31.8873   50.0944   40.7788 H           1 MOL       0.0549
     75 H22       -30.4487   49.1368   40.5851 H           1 MOL       0.0549
     76 H23       -30.5851   46.8643   39.5760 H           1 MOL       0.0703
     77 H24       -34.0747   49.1478   40.2390 H           1 MOL       0.0703
     78 H25       -31.9310   44.8817   39.3562 H           1 MOL       0.0736
     79 H26       -35.4078   47.1589   40.0271 H           1 MOL       0.0736
     80 H27       -29.8152   51.8150   37.1646 H           1 MOL       0.1883
     81 H28       -28.2582   53.2338   39.2167 H           1 MOL       0.0754
     82 H29       -27.2200   51.6434   37.2254 H           1 MOL       0.0544
     83 H30       -26.3841   52.9766   38.0011 H           1 MOL       0.0544
     84 H31       -27.2078   53.3185   34.1312 H           1 MOL       0.1814
     85 H32       -27.5008   51.8630   34.9209 H           1 MOL       0.1814
@<TRIPOS>BOND
     1     1     5  ar
     2     2     1  ar
     3     3     2  ar
     4     6     3   1
     5     3     4  ar
     6     4    11  ar
     7    11    10   1
     8    11     5  ar
     9     7     6   1
    10     8     7   1
    11     8     9   2
    12    13    12   1
    13    13    16   1
    14    14    13   1
    15    14    15   2
    16    16    17   1
    17    17    19  ar
    18    17    18  ar
    19    18    20  ar
    20    20    22  ar
    21    22    23   1
    22    21    22  ar
    23    19    21  ar
    24    23    24   1
    25    24    27  ar
    26    24    26  ar
    27    24    25  ar
    28    29    28   1
    29    29    33   1
    30    31    29   1
    31    29    30   1
    32    31    32   2
    33    33    34   1
    34    34    36  ar
    35    34    35  ar
    36    35    37  ar
    37    37    39  ar
    38    39    40   1
    39    38    39  ar
    40    36    38  ar
    41    40    41   1
    42    41    44  ar
    43    41    43  ar
    44    41    42  ar
    45    46    47   1
    46    46    49   1
    47    45    46   1
    48    49    50   1
    49    50    51   2
    50    50    52  am
    51    47    53  ar
    52    47    48  ar
    53    28    14  am
    54    12     8  am
    55    31    45  am
    56     1    54   1
    57     2    55   1
    58     4    56   1
    59     5    57   1
    60     6    58   1
    61     6    59   1
    62    10    60   1
    63    10    61   1
    64    12    62   1
    65    13    63   1
    66    16    64   1
    67    16    65   1
    68    18    66   1
    69    19    67   1
    70    20    68   1
    71    21    69   1
    72    28    70   1
    73    30    71   1
    74    30    72   1
    75    30    73   1
    76    33    74   1
    77    33    75   1
    78    35    76   1
    79    36    77   1
    80    37    78   1
    81    38    79   1
    82    45    80   1
    83    46    81   1
    84    49    82   1
    85    49    83   1
    86    52    84   1
    87    52    85   1
@<TRIPOS>SUBSTRUCTURE
     1  MOL      1

