@<TRIPOS>MOLECULE
1jyq_ligand_021
    85    87
SMALL
GAST_HUCK
****
This file was generated by PARSER (from files_GN.cpp)

@<TRIPOS>ATOM
      1 C1        -32.8858   45.3239   35.6736 C.ar        1 MOL      -0.0801
      2 C2        -32.1853   44.1127   35.5302 C.ar        1 MOL      -0.0711
      3 C3        -30.9995   43.8755   36.2637 C.ar        1 MOL      -0.0250
      4 C4        -30.5247   44.8820   37.1381 C.ar        1 MOL      -0.0414
      5 C6        -32.4110   46.3115   36.5536 C.ar        1 MOL      -0.0516
      6 C12       -30.2529   42.6024   36.1132 C.3         1 MOL       0.1084
      7 O13       -28.8953   42.7940   35.6923 O.3         1 MOL      -0.2508
      8 C16       -28.4585   43.3051   34.5074 C.2         1 MOL       0.3241
      9 O18       -29.3472   43.7824   33.6005 O.2         1 MOL      -0.3773
     10 N11       -30.7812   47.0355   38.1383 N.pl3       1 MOL      -0.3383
     11 C5        -31.2293   46.0932   37.2890 C.ar        1 MOL       0.0282
     12 N         -27.1249   43.3162   34.2844 N.am        1 MOL      -0.2380
     13 CA        -26.4181   43.6973   33.0846 C.3         1 MOL       0.1484
     14 C         -26.3105   45.1378   32.8189 C.2         1 MOL       0.2046
     15 O         -25.4716   45.4913   31.9818 O.2         1 MOL      -0.3944
     16 CB        -26.8334   42.8350   31.8400 C.3         1 MOL       0.0400
     17 CG        -28.0735   43.2069   31.0911 C.ar        1 MOL      -0.0004
     18 CD1       -29.2106   42.3566   31.0709 C.ar        1 MOL      -0.0239
     19 CD2       -28.1283   44.4015   30.3384 C.ar        1 MOL      -0.0239
     20 CE1       -30.3779   42.7207   30.3709 C.ar        1 MOL       0.0115
     21 CE2       -29.2901   44.7653   29.6329 C.ar        1 MOL       0.0115
     22 CZ        -30.4197   43.9240   29.6346 C.ar        1 MOL       0.1728
     23 OH        -31.5572   44.3382   28.9933 O.3         1 MOL      -0.2040
     24 P         -31.6863   43.8740   27.5151 P.3         1 MOL       0.1348
     25 O1P       -32.3606   44.9331   26.7983 O.co2       1 MOL      -0.6653
     26 O2P       -32.5579   42.7225   27.4123 O.co2       1 MOL      -0.6653
     27 O3P       -30.4594   43.6170   26.8037 O.co2       1 MOL      -0.6653
     28 N         -27.0495   46.0236   33.4776 N.am        1 MOL      -0.2712
     29 CA        -27.2509   47.4556   33.3334 C.3         1 MOL       0.1461
     30 CH3       -28.8072   47.5418   33.1269 C.3         1 MOL      -0.0287
     31 C         -26.4943   48.1008   32.2312 C.2         1 MOL       0.2294
     32 O         -25.2681   48.1235   32.3032 O.2         1 MOL      -0.3416
     33 CB        -26.8713   48.0927   34.7303 C.3         1 MOL       0.0325
     34 CG        -27.4254   49.4477   35.0274 C.ar        1 MOL      -0.0034
     35 CD1       -26.7912   50.6273   34.5677 C.ar        1 MOL      -0.0242
     36 CD2       -28.6006   49.5771   35.8047 C.ar        1 MOL      -0.0242
     37 CE1       -27.3131   51.8950   34.8891 C.ar        1 MOL       0.0115
     38 CE2       -29.1239   50.8406   36.1241 C.ar        1 MOL       0.0115
     39 CZ        -28.4702   52.0094   35.6894 C.ar        1 MOL       0.1728
     40 OH        -29.0240   53.2268   35.9887 O.3         1 MOL      -0.2040
     41 P         -28.3260   53.9871   37.1508 P.3         1 MOL       0.1348
     42 O1P       -29.3274   54.8317   37.7555 O.co2       1 MOL      -0.6653
     43 O2P       -27.3469   54.8931   36.5981 O.co2       1 MOL      -0.6653
     44 O3P       -27.7475   53.1800   38.1943 O.co2       1 MOL      -0.6653
     45 N         -27.0748   48.5881   31.1358 N.am        1 MOL      -0.2663
     46 CA        -26.4669   49.2816   30.0264 C.3         1 MOL       0.1112
     47 C         -27.4632   50.1901   29.4107 C.2         1 MOL       0.0626
     48 O         -28.7533   50.2426   29.8177 O.co2       1 MOL      -0.5664
     49 CB        -25.9231   48.2754   28.9618 C.3         1 MOL       0.0720
     50 CG        -24.7557   47.5401   29.4088 C.2         1 MOL       0.1774
     51 OD1       -24.8695   46.4058   29.8887 O.2         1 MOL      -0.3971
     52 ND2       -23.5474   48.0459   29.3025 N.am        1 MOL      -0.3007
     53 OXT       -27.0906   51.0302   28.4197 O.co2       1 MOL      -0.5664
     54 H1        -33.7420   45.4836   35.1376 H           1 MOL       0.0566
     55 H2        -32.5447   43.4080   34.8819 H           1 MOL       0.0448
     56 H3        -29.6642   44.7288   37.6717 H           1 MOL       0.0451
     57 H4        -32.9308   47.1870   36.6548 H           1 MOL       0.0459
     58 H5        -30.7374   41.9358   35.3956 H           1 MOL       0.0774
     59 H6        -30.2430   42.0867   37.0752 H           1 MOL       0.0774
     60 H7        -29.9669   46.8902   38.6448 H           1 MOL       0.1718
     61 H8        -31.2714   47.8656   38.2451 H           1 MOL       0.1718
     62 H9        -26.5711   43.0271   35.0317 H           1 MOL       0.1902
     63 H10       -25.3921   43.3908   33.3131 H           1 MOL       0.0839
     64 H11       -26.9062   41.7974   32.1782 H           1 MOL       0.0584
     65 H12       -26.0093   42.8524   31.1223 H           1 MOL       0.0584
     66 H13       -29.2036   41.4751   31.5877 H           1 MOL       0.0703
     67 H14       -27.3185   45.0225   30.2867 H           1 MOL       0.0703
     68 H15       -31.2001   42.1133   30.4006 H           1 MOL       0.0736
     69 H16       -29.3050   45.6411   29.1047 H           1 MOL       0.0736
     70 H17       -27.6131   45.6382   34.1714 H           1 MOL       0.1842
     71 H18       -29.1273   48.5748   32.9757 H           1 MOL       0.0244
     72 H19       -29.3434   47.1458   33.9925 H           1 MOL       0.0244
     73 H20       -29.1149   46.9605   32.2530 H           1 MOL       0.0244
     74 H21       -25.7818   48.1332   34.8406 H           1 MOL       0.0549
     75 H22       -27.1975   47.4139   35.5258 H           1 MOL       0.0549
     76 H23       -25.9400   50.5725   34.0045 H           1 MOL       0.0703
     77 H24       -29.0940   48.7474   36.1380 H           1 MOL       0.0703
     78 H25       -26.8437   52.7408   34.5565 H           1 MOL       0.0736
     79 H26       -29.9786   50.9103   36.6811 H           1 MOL       0.0736
     80 H27       -28.0356   48.4911   31.0830 H           1 MOL       0.1883
     81 H28       -25.6499   49.9189   30.3775 H           1 MOL       0.0754
     82 H29       -25.6427   48.7998   28.0411 H           1 MOL       0.0544
     83 H30       -26.7200   47.5787   28.6913 H           1 MOL       0.0544
     84 H31       -22.7770   47.5203   29.5767 H           1 MOL       0.1814
     85 H32       -23.4051   48.9363   28.9244 H           1 MOL       0.1814
@<TRIPOS>BOND
     1     1     5  ar
     2     2     1  ar
     3     3     2  ar
     4     6     3   1
     5     3     4  ar
     6     4    11  ar
     7    11    10   1
     8    11     5  ar
     9     7     6   1
    10     8     7   1
    11     8     9   2
    12    13    12   1
    13    13    16   1
    14    14    13   1
    15    14    15   2
    16    16    17   1
    17    17    19  ar
    18    17    18  ar
    19    18    20  ar
    20    20    22  ar
    21    22    23   1
    22    21    22  ar
    23    19    21  ar
    24    23    24   1
    25    24    27  ar
    26    24    26  ar
    27    24    25  ar
    28    29    28   1
    29    29    33   1
    30    31    29   1
    31    29    30   1
    32    31    32   2
    33    33    34   1
    34    34    36  ar
    35    34    35  ar
    36    35    37  ar
    37    37    39  ar
    38    39    40   1
    39    38    39  ar
    40    36    38  ar
    41    40    41   1
    42    41    44  ar
    43    41    43  ar
    44    41    42  ar
    45    46    47   1
    46    46    49   1
    47    45    46   1
    48    49    50   1
    49    50    51   2
    50    50    52  am
    51    47    53  ar
    52    47    48  ar
    53    28    14  am
    54    12     8  am
    55    31    45  am
    56     1    54   1
    57     2    55   1
    58     4    56   1
    59     5    57   1
    60     6    58   1
    61     6    59   1
    62    10    60   1
    63    10    61   1
    64    12    62   1
    65    13    63   1
    66    16    64   1
    67    16    65   1
    68    18    66   1
    69    19    67   1
    70    20    68   1
    71    21    69   1
    72    28    70   1
    73    30    71   1
    74    30    72   1
    75    30    73   1
    76    33    74   1
    77    33    75   1
    78    35    76   1
    79    36    77   1
    80    37    78   1
    81    38    79   1
    82    45    80   1
    83    46    81   1
    84    49    82   1
    85    49    83   1
    86    52    84   1
    87    52    85   1
@<TRIPOS>SUBSTRUCTURE
     1  MOL      1

