@<TRIPOS>MOLECULE
1jyq_ligand_066
    85    87
SMALL
GAST_HUCK
****
This file was generated by PARSER (from files_GN.cpp)

@<TRIPOS>ATOM
      1 C1        -35.9634   52.2580   34.9341 C.ar        1 MOL      -0.0801
      2 C2        -36.1866   51.7551   36.2322 C.ar        1 MOL      -0.0711
      3 C3        -36.2585   50.3627   36.4593 C.ar        1 MOL      -0.0250
      4 C4        -36.1016   49.4831   35.3626 C.ar        1 MOL      -0.0414
      5 C6        -35.8038   51.3728   33.8546 C.ar        1 MOL      -0.0516
      6 C12       -36.4823   49.8090   37.8213 C.3         1 MOL       0.1084
      7 O13       -35.4299   48.9071   38.1779 O.3         1 MOL      -0.2508
      8 C16       -34.1330   49.2118   38.4465 C.2         1 MOL       0.3241
      9 O18       -33.7089   50.4996   38.4775 O.2         1 MOL      -0.3773
     10 N11       -35.7024   49.1358   33.0315 N.pl3       1 MOL      -0.3383
     11 C5        -35.8691   49.9845   34.0640 C.ar        1 MOL       0.0282
     12 N         -33.2966   48.1698   38.5946 N.am        1 MOL      -0.2380
     13 CA        -31.8697   48.2332   38.7785 C.3         1 MOL       0.1484
     14 C         -31.1293   48.8791   37.6896 C.2         1 MOL       0.2046
     15 O         -31.7245   49.2875   36.6973 O.2         1 MOL      -0.3944
     16 CB        -31.3522   46.7853   39.0666 C.3         1 MOL       0.0400
     17 CG        -31.1229   45.8383   37.9245 C.ar        1 MOL      -0.0004
     18 CD1       -30.1588   44.8156   38.0719 C.ar        1 MOL      -0.0239
     19 CD2       -31.8351   45.8959   36.7016 C.ar        1 MOL      -0.0239
     20 CE1       -29.8821   43.9222   37.0258 C.ar        1 MOL       0.0115
     21 CE2       -31.5292   45.0247   35.6402 C.ar        1 MOL       0.0115
     22 CZ        -30.5327   44.0406   35.7801 C.ar        1 MOL       0.1728
     23 OH        -30.3406   43.1600   34.7405 O.3         1 MOL      -0.2040
     24 P         -28.9135   43.1092   34.1100 P.3         1 MOL       0.1348
     25 O1P       -29.0474   42.5014   32.8137 O.co2       1 MOL      -0.6653
     26 O2P       -28.0592   42.2454   34.8872 O.co2       1 MOL      -0.6653
     27 O3P       -28.2979   44.3945   33.9102 O.co2       1 MOL      -0.6653
     28 N         -29.8007   48.9589   37.7447 N.am        1 MOL      -0.2712
     29 CA        -28.8796   49.3759   36.7027 C.3         1 MOL       0.1461
     30 CH3       -27.4579   49.3722   37.3556 C.3         1 MOL      -0.0287
     31 C         -29.2032   50.7582   36.2961 C.2         1 MOL       0.2294
     32 O         -29.4667   51.0125   35.1251 O.2         1 MOL      -0.3416
     33 CB        -28.9456   48.2896   35.5524 C.3         1 MOL       0.0325
     34 CG        -27.9599   48.3791   34.4281 C.ar        1 MOL      -0.0034
     35 CD1       -26.6545   47.8405   34.5658 C.ar        1 MOL      -0.0242
     36 CD2       -28.3165   48.9311   33.1750 C.ar        1 MOL      -0.0242
     37 CE1       -25.7311   47.8976   33.5094 C.ar        1 MOL       0.0115
     38 CE2       -27.3907   48.9844   32.1126 C.ar        1 MOL       0.0115
     39 CZ        -26.0776   48.5040   32.2874 C.ar        1 MOL       0.1728
     40 OH        -25.1515   48.5161   31.2762 O.3         1 MOL      -0.2040
     41 P         -24.4322   49.8833   31.0642 P.3         1 MOL       0.1348
     42 O1P       -24.3304   50.7154   32.2347 O.co2       1 MOL      -0.6653
     43 O2P       -25.0740   50.6157   30.0040 O.co2       1 MOL      -0.6653
     44 O3P       -23.0895   49.5891   30.6299 O.co2       1 MOL      -0.6653
     45 N         -29.2597   51.7289   37.2048 N.am        1 MOL      -0.2663
     46 CA        -29.6623   53.0966   37.0063 C.3         1 MOL       0.1112
     47 C         -28.4507   53.9259   36.8026 C.2         1 MOL       0.0626
     48 O         -28.3277   54.7449   35.7348 O.co2       1 MOL      -0.5664
     49 CB        -30.6054   53.5759   38.1632 C.3         1 MOL       0.0720
     50 CG        -29.9824   54.2868   39.2690 C.2         1 MOL       0.1774
     51 OD1       -29.6634   55.4581   39.1265 O.2         1 MOL      -0.3971
     52 ND2       -29.6905   53.7041   40.4070 N.am        1 MOL      -0.3007
     53 OXT       -27.4392   53.8990   37.6992 O.co2       1 MOL      -0.5664
     54 H1        -35.9136   53.2671   34.7800 H           1 MOL       0.0566
     55 H2        -36.2970   52.4155   37.0050 H           1 MOL       0.0448
     56 H3        -36.1476   48.4708   35.5083 H           1 MOL       0.0451
     57 H4        -35.6380   51.7484   32.9154 H           1 MOL       0.0459
     58 H5        -37.4162   49.2453   37.8171 H           1 MOL       0.0774
     59 H6        -36.5668   50.5901   38.5807 H           1 MOL       0.0774
     60 H7        -35.7397   48.1783   33.1764 H           1 MOL       0.1718
     61 H8        -35.5368   49.4829   32.1410 H           1 MOL       0.1718
     62 H9        -33.6937   47.2862   38.5511 H           1 MOL       0.1902
     63 H10       -31.6995   48.8272   39.6839 H           1 MOL       0.0839
     64 H11       -32.0255   46.2914   39.7731 H           1 MOL       0.0584
     65 H12       -30.4028   46.9037   39.5986 H           1 MOL       0.0584
     66 H13       -29.6456   44.7076   38.9541 H           1 MOL       0.0703
     67 H14       -32.5814   46.5752   36.5628 H           1 MOL       0.0703
     68 H15       -29.1962   43.1828   37.1747 H           1 MOL       0.0736
     69 H16       -32.0519   45.1008   34.7617 H           1 MOL       0.0736
     70 H17       -29.3908   48.6435   38.5678 H           1 MOL       0.1842
     71 H18       -26.7117   49.7829   36.6713 H           1 MOL       0.0244
     72 H19       -27.1586   48.3574   37.6269 H           1 MOL       0.0244
     73 H20       -27.4401   49.9719   38.2687 H           1 MOL       0.0244
     74 H21       -29.9504   48.3033   35.1225 H           1 MOL       0.0549
     75 H22       -28.8431   47.2953   36.0004 H           1 MOL       0.0549
     76 H23       -26.3731   47.3833   35.4366 H           1 MOL       0.0703
     77 H24       -29.2625   49.2916   33.0179 H           1 MOL       0.0703
     78 H25       -24.7967   47.4985   33.6313 H           1 MOL       0.0736
     79 H26       -27.6712   49.3837   31.2139 H           1 MOL       0.0736
     80 H27       -29.0322   51.4832   38.1172 H           1 MOL       0.1883
     81 H28       -30.2594   53.1581   36.0901 H           1 MOL       0.0754
     82 H29       -31.1587   52.7167   38.5553 H           1 MOL       0.0544
     83 H30       -31.3591   54.2452   37.7376 H           1 MOL       0.0544
     84 H31       -29.2487   54.2080   41.1103 H           1 MOL       0.1814
     85 H32       -29.9242   52.7753   40.5563 H           1 MOL       0.1814
@<TRIPOS>BOND
     1     1     5  ar
     2     2     1  ar
     3     3     2  ar
     4     6     3   1
     5     3     4  ar
     6     4    11  ar
     7    11    10   1
     8    11     5  ar
     9     7     6   1
    10     8     7   1
    11     8     9   2
    12    13    12   1
    13    13    16   1
    14    14    13   1
    15    14    15   2
    16    16    17   1
    17    17    19  ar
    18    17    18  ar
    19    18    20  ar
    20    20    22  ar
    21    22    23   1
    22    21    22  ar
    23    19    21  ar
    24    23    24   1
    25    24    27  ar
    26    24    26  ar
    27    24    25  ar
    28    29    28   1
    29    29    33   1
    30    31    29   1
    31    29    30   1
    32    31    32   2
    33    33    34   1
    34    34    36  ar
    35    34    35  ar
    36    35    37  ar
    37    37    39  ar
    38    39    40   1
    39    38    39  ar
    40    36    38  ar
    41    40    41   1
    42    41    44  ar
    43    41    43  ar
    44    41    42  ar
    45    46    47   1
    46    46    49   1
    47    45    46   1
    48    49    50   1
    49    50    51   2
    50    50    52  am
    51    47    53  ar
    52    47    48  ar
    53    28    14  am
    54    12     8  am
    55    31    45  am
    56     1    54   1
    57     2    55   1
    58     4    56   1
    59     5    57   1
    60     6    58   1
    61     6    59   1
    62    10    60   1
    63    10    61   1
    64    12    62   1
    65    13    63   1
    66    16    64   1
    67    16    65   1
    68    18    66   1
    69    19    67   1
    70    20    68   1
    71    21    69   1
    72    28    70   1
    73    30    71   1
    74    30    72   1
    75    30    73   1
    76    33    74   1
    77    33    75   1
    78    35    76   1
    79    36    77   1
    80    37    78   1
    81    38    79   1
    82    45    80   1
    83    46    81   1
    84    49    82   1
    85    49    83   1
    86    52    84   1
    87    52    85   1
@<TRIPOS>SUBSTRUCTURE
     1  MOL      1

