@<TRIPOS>MOLECULE
1jyq_ligand_026
    85    87
SMALL
GAST_HUCK
****
This file was generated by PARSER (from files_GN.cpp)

@<TRIPOS>ATOM
      1 C1        -24.8155   38.6767   31.5916 C.ar        1 MOL      -0.0801
      2 C2        -25.0085   39.6540   32.5874 C.ar        1 MOL      -0.0711
      3 C3        -24.1185   40.7464   32.7045 C.ar        1 MOL      -0.0250
      4 C4        -23.0283   40.8392   31.8094 C.ar        1 MOL      -0.0414
      5 C6        -23.7178   38.7687   30.7175 C.ar        1 MOL      -0.0516
      6 C12       -24.3336   41.7658   33.7635 C.3         1 MOL       0.1084
      7 O13       -25.7039   42.1685   33.8738 O.3         1 MOL      -0.2508
      8 C16       -26.4662   42.8065   32.9491 C.2         1 MOL       0.3241
      9 O18       -25.9757   43.1446   31.7335 O.2         1 MOL      -0.3773
     10 N11       -21.7692   39.9347   29.9943 N.pl3       1 MOL      -0.3383
     11 C5        -22.8199   39.8485   30.8262 C.ar        1 MOL       0.0282
     12 N         -27.7525   43.0374   33.2914 N.am        1 MOL      -0.2380
     13 CA        -28.7821   43.5602   32.4451 C.3         1 MOL       0.1484
     14 C         -28.4863   44.9086   31.9677 C.2         1 MOL       0.2046
     15 O         -28.7833   45.2068   30.8167 O.2         1 MOL      -0.3944
     16 CB        -30.1451   43.5502   33.2026 C.3         1 MOL       0.0400
     17 CG        -30.5000   42.2229   33.7804 C.ar        1 MOL      -0.0004
     18 CD1       -30.9506   41.1683   32.9515 C.ar        1 MOL      -0.0239
     19 CD2       -30.3825   41.9837   35.1700 C.ar        1 MOL      -0.0239
     20 CE1       -31.2582   39.9046   33.4939 C.ar        1 MOL       0.0115
     21 CE2       -30.6779   40.7217   35.7095 C.ar        1 MOL       0.0115
     22 CZ        -31.0935   39.6663   34.8758 C.ar        1 MOL       0.1728
     23 OH        -31.4375   38.4661   35.4363 O.3         1 MOL      -0.2040
     24 P         -30.2516   37.4716   35.6054 P.3         1 MOL       0.1348
     25 O1P       -30.7470   36.3659   36.3930 O.co2       1 MOL      -0.6653
     26 O2P       -29.1283   38.0151   36.3256 O.co2       1 MOL      -0.6653
     27 O3P       -29.8251   36.9201   34.3396 O.co2       1 MOL      -0.6653
     28 N         -28.0756   45.8249   32.8382 N.am        1 MOL      -0.2712
     29 CA        -28.0209   47.2742   32.7140 C.3         1 MOL       0.1461
     30 CH3       -29.5006   47.7275   32.4457 C.3         1 MOL      -0.0287
     31 C         -27.0698   47.6616   31.6460 C.2         1 MOL       0.2294
     32 O         -26.0025   47.0608   31.5741 O.2         1 MOL      -0.3416
     33 CB        -27.5309   47.7972   34.1215 C.3         1 MOL       0.0325
     34 CG        -27.8771   49.1953   34.5208 C.ar        1 MOL      -0.0034
     35 CD1       -26.9519   50.2584   34.3896 C.ar        1 MOL      -0.0242
     36 CD2       -29.1358   49.4698   35.1158 C.ar        1 MOL      -0.0242
     37 CE1       -27.2657   51.5505   34.8665 C.ar        1 MOL       0.0115
     38 CE2       -29.4641   50.7690   35.5481 C.ar        1 MOL       0.0115
     39 CZ        -28.5212   51.8158   35.4594 C.ar        1 MOL       0.1728
     40 OH        -28.8460   53.0815   35.8762 O.3         1 MOL      -0.2040
     41 P         -28.5271   53.4025   37.3702 P.3         1 MOL       0.1348
     42 O1P       -28.9058   52.3296   38.2612 O.co2       1 MOL      -0.6653
     43 O2P       -29.3193   54.5491   37.7345 O.co2       1 MOL      -0.6653
     44 O3P       -27.1423   53.7531   37.5823 O.co2       1 MOL      -0.6653
     45 N         -27.3617   48.5839   30.7259 N.am        1 MOL      -0.2663
     46 CA        -26.6584   48.9225   29.5094 C.3         1 MOL       0.1112
     47 C         -26.5757   47.7904   28.5545 C.2         1 MOL       0.0626
     48 O         -25.7252   47.8925   27.5078 O.co2       1 MOL      -0.5664
     49 CB        -25.3232   49.6987   29.7433 C.3         1 MOL       0.0720
     50 CG        -24.1605   48.9149   30.1234 C.2         1 MOL       0.1774
     51 OD1       -23.6690   49.0317   31.2373 O.2         1 MOL      -0.3971
     52 ND2       -23.5594   48.1111   29.2698 N.am        1 MOL      -0.3007
     53 OXT       -27.6695   47.0197   28.3362 O.co2       1 MOL      -0.5664
     54 H1        -25.4775   37.9010   31.5066 H           1 MOL       0.0566
     55 H2        -25.8115   39.5647   33.2136 H           1 MOL       0.0448
     56 H3        -22.3766   41.6248   31.8744 H           1 MOL       0.0451
     57 H4        -23.5779   38.0471   30.0042 H           1 MOL       0.0459
     58 H5        -23.7226   42.6582   33.6088 H           1 MOL       0.0774
     59 H6        -24.0443   41.3308   34.7220 H           1 MOL       0.0774
     60 H7        -21.1494   40.6776   30.0656 H           1 MOL       0.1718
     61 H8        -21.6193   39.2493   29.3230 H           1 MOL       0.1718
     62 H9        -28.0108   42.7794   34.1912 H           1 MOL       0.1902
     63 H10       -28.8738   42.8829   31.5868 H           1 MOL       0.0839
     64 H11       -30.9490   43.8530   32.5242 H           1 MOL       0.0584
     65 H12       -30.1108   44.3057   33.9953 H           1 MOL       0.0584
     66 H13       -31.0627   41.3133   31.9462 H           1 MOL       0.0703
     67 H14       -30.0662   42.7246   35.7979 H           1 MOL       0.0703
     68 H15       -31.5964   39.1572   32.8819 H           1 MOL       0.0736
     69 H16       -30.5811   40.5695   36.7158 H           1 MOL       0.0736
     70 H17       -27.8364   45.4707   33.7108 H           1 MOL       0.1842
     71 H18       -29.5914   48.8153   32.4333 H           1 MOL       0.0244
     72 H19       -30.1677   47.3385   33.2217 H           1 MOL       0.0244
     73 H20       -29.8495   47.3557   31.4769 H           1 MOL       0.0244
     74 H21       -26.4472   47.6696   34.2028 H           1 MOL       0.0549
     75 H22       -27.9447   47.1349   34.8929 H           1 MOL       0.0549
     76 H23       -26.0361   50.0946   33.9659 H           1 MOL       0.0703
     77 H24       -29.8169   48.7154   35.2484 H           1 MOL       0.0703
     78 H25       -26.5875   52.3065   34.7743 H           1 MOL       0.0736
     79 H26       -30.3949   50.9513   35.9254 H           1 MOL       0.0736
     80 H27       -28.2039   49.0480   30.8368 H           1 MOL       0.1883
     81 H28       -27.3165   49.6441   29.0134 H           1 MOL       0.0754
     82 H29       -25.5072   50.4610   30.5081 H           1 MOL       0.0544
     83 H30       -25.0724   50.2458   28.8282 H           1 MOL       0.0544
     84 H31       -22.7888   47.5897   29.5491 H           1 MOL       0.1814
     85 H32       -23.8844   48.0371   28.3562 H           1 MOL       0.1814
@<TRIPOS>BOND
     1     1     5  ar
     2     2     1  ar
     3     3     2  ar
     4     6     3   1
     5     3     4  ar
     6     4    11  ar
     7    11    10   1
     8    11     5  ar
     9     7     6   1
    10     8     7   1
    11     8     9   2
    12    13    12   1
    13    13    16   1
    14    14    13   1
    15    14    15   2
    16    16    17   1
    17    17    19  ar
    18    17    18  ar
    19    18    20  ar
    20    20    22  ar
    21    22    23   1
    22    21    22  ar
    23    19    21  ar
    24    23    24   1
    25    24    27  ar
    26    24    26  ar
    27    24    25  ar
    28    29    28   1
    29    29    33   1
    30    31    29   1
    31    29    30   1
    32    31    32   2
    33    33    34   1
    34    34    36  ar
    35    34    35  ar
    36    35    37  ar
    37    37    39  ar
    38    39    40   1
    39    38    39  ar
    40    36    38  ar
    41    40    41   1
    42    41    44  ar
    43    41    43  ar
    44    41    42  ar
    45    46    47   1
    46    46    49   1
    47    45    46   1
    48    49    50   1
    49    50    51   2
    50    50    52  am
    51    47    53  ar
    52    47    48  ar
    53    28    14  am
    54    12     8  am
    55    31    45  am
    56     1    54   1
    57     2    55   1
    58     4    56   1
    59     5    57   1
    60     6    58   1
    61     6    59   1
    62    10    60   1
    63    10    61   1
    64    12    62   1
    65    13    63   1
    66    16    64   1
    67    16    65   1
    68    18    66   1
    69    19    67   1
    70    20    68   1
    71    21    69   1
    72    28    70   1
    73    30    71   1
    74    30    72   1
    75    30    73   1
    76    33    74   1
    77    33    75   1
    78    35    76   1
    79    36    77   1
    80    37    78   1
    81    38    79   1
    82    45    80   1
    83    46    81   1
    84    49    82   1
    85    49    83   1
    86    52    84   1
    87    52    85   1
@<TRIPOS>SUBSTRUCTURE
     1  MOL      1

