@<TRIPOS>MOLECULE
1jyq_ligand_093
    85    87
SMALL
GAST_HUCK
****
This file was generated by PARSER (from files_GN.cpp)

@<TRIPOS>ATOM
      1 C1        -29.3490   41.1339   40.5244 C.ar        1 MOL      -0.0801
      2 C2        -28.3077   41.9478   40.0485 C.ar        1 MOL      -0.0711
      3 C3        -28.4725   43.3487   39.9598 C.ar        1 MOL      -0.0250
      4 C4        -29.6978   43.9242   40.3661 C.ar        1 MOL      -0.0414
      5 C6        -30.5650   41.7134   40.9212 C.ar        1 MOL      -0.0516
      6 C12       -27.3900   44.2121   39.4108 C.3         1 MOL       0.1084
      7 O13       -27.3714   44.3663   37.9798 O.3         1 MOL      -0.2508
      8 C16       -28.2502   44.0770   36.9778 C.2         1 MOL       0.3241
      9 O18       -29.4400   43.4734   37.2238 O.2         1 MOL      -0.3773
     10 N11       -31.9093   43.6670   41.2261 N.pl3       1 MOL      -0.3383
     11 C5        -30.7436   43.1123   40.8490 C.ar        1 MOL       0.0282
     12 N         -27.8405   44.3421   35.7149 N.am        1 MOL      -0.2380
     13 CA        -28.5450   43.9854   34.5181 C.3         1 MOL       0.1484
     14 C         -28.2652   42.6095   34.1022 C.2         1 MOL       0.2046
     15 O         -27.1606   42.1284   34.3079 O.2         1 MOL      -0.3944
     16 CB        -28.1930   45.0375   33.4216 C.3         1 MOL       0.0400
     17 CG        -28.5675   44.6247   32.0403 C.ar        1 MOL      -0.0004
     18 CD1       -29.7616   45.0754   31.4335 C.ar        1 MOL      -0.0239
     19 CD2       -27.7576   43.7015   31.3523 C.ar        1 MOL      -0.0239
     20 CE1       -30.1370   44.6038   30.1585 C.ar        1 MOL       0.0115
     21 CE2       -28.1628   43.1835   30.1165 C.ar        1 MOL       0.0115
     22 CZ        -29.3580   43.6167   29.5046 C.ar        1 MOL       0.1728
     23 OH        -29.6035   43.1222   28.2503 O.3         1 MOL      -0.2040
     24 P         -30.9837   42.4464   27.9688 P.3         1 MOL       0.1348
     25 O1P       -30.7642   41.1644   27.3449 O.co2       1 MOL      -0.6653
     26 O2P       -31.6547   43.2684   26.9868 O.co2       1 MOL      -0.6653
     27 O3P       -31.8721   42.2679   29.0922 O.co2       1 MOL      -0.6653
     28 N         -29.1930   41.9113   33.4572 N.am        1 MOL      -0.2712
     29 CA        -29.1716   40.5421   32.9625 C.3         1 MOL       0.1461
     30 CH3       -29.6034   39.6123   34.1430 C.3         1 MOL      -0.0287
     31 C         -27.8402   40.2245   32.3886 C.2         1 MOL       0.2294
     32 O         -27.4979   40.8055   31.3629 O.2         1 MOL      -0.3416
     33 CB        -30.2833   40.5080   31.8404 C.3         1 MOL       0.0325
     34 CG        -30.4465   39.2422   31.0663 C.ar        1 MOL      -0.0034
     35 CD1       -31.5173   38.3591   31.3454 C.ar        1 MOL      -0.0242
     36 CD2       -29.5881   38.9417   29.9856 C.ar        1 MOL      -0.0242
     37 CE1       -31.7173   37.2043   30.5690 C.ar        1 MOL       0.0115
     38 CE2       -29.7733   37.7763   29.2204 C.ar        1 MOL       0.0115
     39 CZ        -30.8268   36.8877   29.5208 C.ar        1 MOL       0.1728
     40 OH        -31.0343   35.7860   28.7328 O.3         1 MOL      -0.2040
     41 P         -30.3280   34.4990   29.2625 P.3         1 MOL       0.1348
     42 O1P       -28.8971   34.6508   29.3739 O.co2       1 MOL      -0.6653
     43 O2P       -30.5813   33.4443   28.3147 O.co2       1 MOL      -0.6653
     44 O3P       -30.8722   34.0684   30.5255 O.co2       1 MOL      -0.6653
     45 N         -26.9948   39.3819   32.9794 N.am        1 MOL      -0.2663
     46 CA        -25.6148   39.1275   32.6720 C.3         1 MOL       0.1112
     47 C         -24.7521   40.2169   33.2035 C.2         1 MOL       0.0626
     48 O         -23.8921   39.9946   34.2175 O.co2       1 MOL      -0.5664
     49 CB        -25.2755   38.8231   31.1842 C.3         1 MOL       0.0720
     50 CG        -26.2231   37.9656   30.4952 C.2         1 MOL       0.1774
     51 OD1       -26.5286   38.2062   29.3379 O.2         1 MOL      -0.3971
     52 ND2       -26.7019   36.8619   31.0231 N.am        1 MOL      -0.3007
     53 OXT       -24.7508   41.4459   32.6164 O.co2       1 MOL      -0.5664
     54 H1        -29.2245   40.1223   40.5725 H           1 MOL       0.0566
     55 H2        -27.4320   41.5043   39.7439 H           1 MOL       0.0448
     56 H3        -29.8314   44.9300   40.3040 H           1 MOL       0.0451
     57 H4        -31.3228   41.1117   41.2666 H           1 MOL       0.0459
     58 H5        -26.4099   43.8164   39.6897 H           1 MOL       0.0774
     59 H6        -27.4600   45.2072   39.8567 H           1 MOL       0.0774
     60 H7        -32.0299   44.6266   41.1745 H           1 MOL       0.1718
     61 H8        -32.6342   43.1100   41.5539 H           1 MOL       0.1718
     62 H9        -26.9695   44.7603   35.6173 H           1 MOL       0.1902
     63 H10       -29.6135   44.0798   34.7284 H           1 MOL       0.0839
     64 H11       -27.1152   45.2610   33.4590 H           1 MOL       0.0584
     65 H12       -28.7018   45.9859   33.6504 H           1 MOL       0.0584
     66 H13       -30.3642   45.7479   31.9133 H           1 MOL       0.0703
     67 H14       -26.8873   43.3632   31.7599 H           1 MOL       0.0703
     68 H15       -30.9822   44.9647   29.7152 H           1 MOL       0.0736
     69 H16       -27.5799   42.4901   29.6499 H           1 MOL       0.0736
     70 H17       -30.0159   42.3982   33.2829 H           1 MOL       0.1842
     71 H18       -29.6371   38.5655   33.8331 H           1 MOL       0.0244
     72 H19       -30.5932   39.8806   34.5145 H           1 MOL       0.0244
     73 H20       -28.9054   39.6901   34.9754 H           1 MOL       0.0244
     74 H21       -30.0862   41.3121   31.1234 H           1 MOL       0.0549
     75 H22       -31.2442   40.7647   32.2984 H           1 MOL       0.0549
     76 H23       -32.1713   38.5584   32.1053 H           1 MOL       0.0703
     77 H24       -28.8393   39.5834   29.7300 H           1 MOL       0.0703
     78 H25       -32.5083   36.5895   30.7688 H           1 MOL       0.0736
     79 H26       -29.1512   37.5790   28.4357 H           1 MOL       0.0736
     80 H27       -27.3396   38.8967   33.7401 H           1 MOL       0.1883
     81 H28       -25.3647   38.2278   33.2421 H           1 MOL       0.0754
     82 H29       -24.2948   38.3324   31.1360 H           1 MOL       0.0544
     83 H30       -25.1773   39.7646   30.6332 H           1 MOL       0.0544
     84 H31       -27.3032   36.3015   30.5042 H           1 MOL       0.1814
     85 H32       -26.4715   36.5978   31.9279 H           1 MOL       0.1814
@<TRIPOS>BOND
     1     1     5  ar
     2     2     1  ar
     3     3     2  ar
     4     6     3   1
     5     3     4  ar
     6     4    11  ar
     7    11    10   1
     8    11     5  ar
     9     7     6   1
    10     8     7   1
    11     8     9   2
    12    13    12   1
    13    13    16   1
    14    14    13   1
    15    14    15   2
    16    16    17   1
    17    17    19  ar
    18    17    18  ar
    19    18    20  ar
    20    20    22  ar
    21    22    23   1
    22    21    22  ar
    23    19    21  ar
    24    23    24   1
    25    24    27  ar
    26    24    26  ar
    27    24    25  ar
    28    29    28   1
    29    29    33   1
    30    31    29   1
    31    29    30   1
    32    31    32   2
    33    33    34   1
    34    34    36  ar
    35    34    35  ar
    36    35    37  ar
    37    37    39  ar
    38    39    40   1
    39    38    39  ar
    40    36    38  ar
    41    40    41   1
    42    41    44  ar
    43    41    43  ar
    44    41    42  ar
    45    46    47   1
    46    46    49   1
    47    45    46   1
    48    49    50   1
    49    50    51   2
    50    50    52  am
    51    47    53  ar
    52    47    48  ar
    53    28    14  am
    54    12     8  am
    55    31    45  am
    56     1    54   1
    57     2    55   1
    58     4    56   1
    59     5    57   1
    60     6    58   1
    61     6    59   1
    62    10    60   1
    63    10    61   1
    64    12    62   1
    65    13    63   1
    66    16    64   1
    67    16    65   1
    68    18    66   1
    69    19    67   1
    70    20    68   1
    71    21    69   1
    72    28    70   1
    73    30    71   1
    74    30    72   1
    75    30    73   1
    76    33    74   1
    77    33    75   1
    78    35    76   1
    79    36    77   1
    80    37    78   1
    81    38    79   1
    82    45    80   1
    83    46    81   1
    84    49    82   1
    85    49    83   1
    86    52    84   1
    87    52    85   1
@<TRIPOS>SUBSTRUCTURE
     1  MOL      1

