@<TRIPOS>MOLECULE
1jyq_ligand_040
    85    87
SMALL
GAST_HUCK
****
This file was generated by PARSER (from files_GN.cpp)

@<TRIPOS>ATOM
      1 C1        -31.4185   47.3535   28.1156 C.ar        1 MOL      -0.0801
      2 C2        -31.4218   46.1198   27.4372 C.ar        1 MOL      -0.0711
      3 C3        -30.5770   45.0605   27.8461 C.ar        1 MOL      -0.0250
      4 C4        -29.7294   45.2694   28.9632 C.ar        1 MOL      -0.0414
      5 C6        -30.5697   47.5445   29.2183 C.ar        1 MOL      -0.0516
      6 C12       -30.5987   43.7898   27.0765 C.3         1 MOL       0.1084
      7 O13       -29.4861   42.9289   27.3575 O.3         1 MOL      -0.2508
      8 C16       -29.4743   41.5955   27.6030 C.2         1 MOL       0.3241
      9 O18       -30.6081   40.8477   27.5862 O.2         1 MOL      -0.3773
     10 N11       -28.9056   46.6898   30.7006 N.pl3       1 MOL      -0.3383
     11 C5        -29.7218   46.5025   29.6467 C.ar        1 MOL       0.0282
     12 N         -28.2490   41.0548   27.7730 N.am        1 MOL      -0.2380
     13 CA        -27.9161   39.6635   27.8656 C.3         1 MOL       0.1484
     14 C         -27.2489   39.4214   29.1459 C.2         1 MOL       0.2046
     15 O         -26.3107   38.6213   29.2070 O.2         1 MOL      -0.3944
     16 CB        -27.1328   39.2536   26.5653 C.3         1 MOL       0.0400
     17 CG        -26.0652   40.1911   26.0872 C.ar        1 MOL      -0.0004
     18 CD1       -24.6967   39.8327   26.1375 C.ar        1 MOL      -0.0239
     19 CD2       -26.3974   41.4593   25.5465 C.ar        1 MOL      -0.0239
     20 CE1       -23.6969   40.7314   25.7168 C.ar        1 MOL       0.0115
     21 CE2       -25.3992   42.3680   25.1507 C.ar        1 MOL       0.0115
     22 CZ        -24.0380   42.0136   25.2352 C.ar        1 MOL       0.1728
     23 OH        -23.0597   42.9458   24.9982 O.3         1 MOL      -0.2040
     24 P         -22.5614   43.0282   23.5244 P.3         1 MOL       0.1348
     25 O1P       -21.9694   41.7955   23.0729 O.co2       1 MOL      -0.6653
     26 O2P       -21.5413   44.0488   23.4667 O.co2       1 MOL      -0.6653
     27 O3P       -23.6041   43.4359   22.6143 O.co2       1 MOL      -0.6653
     28 N         -27.7843   39.9449   30.2511 N.am        1 MOL      -0.2712
     29 CA        -27.4163   39.9152   31.6522 C.3         1 MOL       0.1461
     30 CH3       -27.2553   41.4307   32.0430 C.3         1 MOL      -0.0287
     31 C         -26.1549   39.2015   31.9533 C.2         1 MOL       0.2294
     32 O         -26.1513   38.2070   32.6782 O.2         1 MOL      -0.3416
     33 CB        -28.6621   39.3810   32.4662 C.3         1 MOL       0.0325
     34 CG        -28.9992   37.9314   32.3529 C.ar        1 MOL      -0.0034
     35 CD1       -28.7357   37.0516   33.4286 C.ar        1 MOL      -0.0242
     36 CD2       -29.5927   37.4074   31.1825 C.ar        1 MOL      -0.0242
     37 CE1       -29.0104   35.6776   33.3184 C.ar        1 MOL       0.0115
     38 CE2       -29.8736   36.0336   31.0746 C.ar        1 MOL       0.0115
     39 CZ        -29.5958   35.1611   32.1463 C.ar        1 MOL       0.1728
     40 OH        -29.7986   33.8134   32.0144 O.3         1 MOL      -0.2040
     41 P         -31.1987   33.3273   32.5003 P.3         1 MOL       0.1348
     42 O1P       -31.4281   33.6048   33.8956 O.co2       1 MOL      -0.6653
     43 O2P       -31.2377   31.8957   32.3444 O.co2       1 MOL      -0.6653
     44 O3P       -32.2693   33.8757   31.7063 O.co2       1 MOL      -0.6653
     45 N         -25.0012   39.5567   31.3885 N.am        1 MOL      -0.2663
     46 CA        -23.7305   38.9062   31.5466 C.3         1 MOL       0.1112
     47 C         -23.3138   38.7691   32.9654 C.2         1 MOL       0.0626
     48 O         -22.2631   37.9809   33.2719 O.co2       1 MOL      -0.5664
     49 CB        -22.6349   39.6656   30.7330 C.3         1 MOL       0.0720
     50 CG        -22.7827   39.6251   29.2795 C.2         1 MOL       0.1774
     51 OD1       -23.8327   39.9558   28.7393 O.2         1 MOL      -0.3971
     52 ND2       -21.7484   39.3603   28.4991 N.am        1 MOL      -0.3007
     53 OXT       -24.0786   39.2175   33.9901 O.co2       1 MOL      -0.5664
     54 H1        -32.0303   48.1097   27.8051 H           1 MOL       0.0566
     55 H2        -32.0432   46.0044   26.6305 H           1 MOL       0.0448
     56 H3        -29.1058   44.5256   29.2835 H           1 MOL       0.0451
     57 H4        -30.5708   48.4460   29.7068 H           1 MOL       0.0459
     58 H5        -30.5481   44.0353   26.0124 H           1 MOL       0.0774
     59 H6        -31.5461   43.2784   27.2592 H           1 MOL       0.0774
     60 H7        -28.3196   45.9735   30.9927 H           1 MOL       0.1718
     61 H8        -28.9007   47.5421   31.1673 H           1 MOL       0.1718
     62 H9        -27.4900   41.6579   27.7663 H           1 MOL       0.1902
     63 H10       -28.8256   39.0507   27.8898 H           1 MOL       0.0839
     64 H11       -27.8585   39.1514   25.7542 H           1 MOL       0.0584
     65 H12       -26.7187   38.2499   26.7162 H           1 MOL       0.0584
     66 H13       -24.4171   38.9168   26.4968 H           1 MOL       0.0703
     67 H14       -27.3742   41.7419   25.4435 H           1 MOL       0.0703
     68 H15       -22.7139   40.4634   25.7890 H           1 MOL       0.0736
     69 H16       -25.6656   43.2945   24.8067 H           1 MOL       0.0736
     70 H17       -28.5820   40.4786   30.0842 H           1 MOL       0.1842
     71 H18       -26.9433   41.5353   33.0855 H           1 MOL       0.0244
     72 H19       -28.1907   41.9773   31.9110 H           1 MOL       0.0244
     73 H20       -26.5084   41.9312   31.4186 H           1 MOL       0.0244
     74 H21       -29.5546   39.9444   32.1715 H           1 MOL       0.0549
     75 H22       -28.4960   39.6295   33.5207 H           1 MOL       0.0549
     76 H23       -28.3106   37.3950   34.2935 H           1 MOL       0.0703
     77 H24       -29.8214   38.0199   30.3990 H           1 MOL       0.0703
     78 H25       -28.7795   35.0531   34.0952 H           1 MOL       0.0736
     79 H26       -30.2856   35.6675   30.2150 H           1 MOL       0.0736
     80 H27       -25.0186   40.3242   30.7913 H           1 MOL       0.1883
     81 H28       -23.8213   37.9029   31.1285 H           1 MOL       0.0754
     82 H29       -21.6554   39.2432   30.9727 H           1 MOL       0.0544
     83 H30       -22.6226   40.7155   31.0339 H           1 MOL       0.0544
     84 H31       -21.8351   39.3766   27.5280 H           1 MOL       0.1814
     85 H32       -20.8806   39.1655   28.8950 H           1 MOL       0.1814
@<TRIPOS>BOND
     1     1     5  ar
     2     2     1  ar
     3     3     2  ar
     4     6     3   1
     5     3     4  ar
     6     4    11  ar
     7    11    10   1
     8    11     5  ar
     9     7     6   1
    10     8     7   1
    11     8     9   2
    12    13    12   1
    13    13    16   1
    14    14    13   1
    15    14    15   2
    16    16    17   1
    17    17    19  ar
    18    17    18  ar
    19    18    20  ar
    20    20    22  ar
    21    22    23   1
    22    21    22  ar
    23    19    21  ar
    24    23    24   1
    25    24    27  ar
    26    24    26  ar
    27    24    25  ar
    28    29    28   1
    29    29    33   1
    30    31    29   1
    31    29    30   1
    32    31    32   2
    33    33    34   1
    34    34    36  ar
    35    34    35  ar
    36    35    37  ar
    37    37    39  ar
    38    39    40   1
    39    38    39  ar
    40    36    38  ar
    41    40    41   1
    42    41    44  ar
    43    41    43  ar
    44    41    42  ar
    45    46    47   1
    46    46    49   1
    47    45    46   1
    48    49    50   1
    49    50    51   2
    50    50    52  am
    51    47    53  ar
    52    47    48  ar
    53    28    14  am
    54    12     8  am
    55    31    45  am
    56     1    54   1
    57     2    55   1
    58     4    56   1
    59     5    57   1
    60     6    58   1
    61     6    59   1
    62    10    60   1
    63    10    61   1
    64    12    62   1
    65    13    63   1
    66    16    64   1
    67    16    65   1
    68    18    66   1
    69    19    67   1
    70    20    68   1
    71    21    69   1
    72    28    70   1
    73    30    71   1
    74    30    72   1
    75    30    73   1
    76    33    74   1
    77    33    75   1
    78    35    76   1
    79    36    77   1
    80    37    78   1
    81    38    79   1
    82    45    80   1
    83    46    81   1
    84    49    82   1
    85    49    83   1
    86    52    84   1
    87    52    85   1
@<TRIPOS>SUBSTRUCTURE
     1  MOL      1

