@<TRIPOS>MOLECULE
1jyq_ligand_034
    85    87
SMALL
GAST_HUCK
****
This file was generated by PARSER (from files_GN.cpp)

@<TRIPOS>ATOM
      1 C1        -30.3058   45.5014   40.3779 C.ar        1 MOL      -0.0801
      2 C2        -31.4508   46.2247   40.7518 C.ar        1 MOL      -0.0711
      3 C3        -31.8250   46.3221   42.1113 C.ar        1 MOL      -0.0250
      4 C4        -31.0276   45.6679   43.0839 C.ar        1 MOL      -0.0414
      5 C6        -29.5256   44.8507   41.3446 C.ar        1 MOL      -0.0516
      6 C12       -33.0891   47.0215   42.4758 C.3         1 MOL       0.1084
      7 O13       -33.0711   48.4146   42.1165 O.3         1 MOL      -0.2508
      8 C16       -33.6031   49.0082   41.0116 C.2         1 MOL       0.3241
      9 O18       -34.1575   48.2594   40.0284 O.2         1 MOL      -0.3773
     10 N11       -29.1591   44.2469   43.6100 N.pl3       1 MOL      -0.3383
     11 C5        -29.8913   44.9218   42.7029 C.ar        1 MOL       0.0282
     12 N         -33.5291   50.3544   40.9193 N.am        1 MOL      -0.2380
     13 CA        -33.8419   51.1408   39.7516 C.3         1 MOL       0.1484
     14 C         -32.8901   50.8483   38.6757 C.2         1 MOL       0.2046
     15 O         -33.3228   50.4589   37.5975 O.2         1 MOL      -0.3944
     16 CB        -33.8826   52.6529   40.1320 C.3         1 MOL       0.0400
     17 CG        -34.2315   53.5918   39.0248 C.ar        1 MOL      -0.0004
     18 CD1       -35.3468   53.3473   38.1879 C.ar        1 MOL      -0.0239
     19 CD2       -33.4677   54.7620   38.8010 C.ar        1 MOL      -0.0239
     20 CE1       -35.6561   54.2177   37.1264 C.ar        1 MOL       0.0115
     21 CE2       -33.8032   55.6529   37.7652 C.ar        1 MOL       0.0115
     22 CZ        -34.8720   55.3647   36.8877 C.ar        1 MOL       0.1728
     23 OH        -35.2289   56.2117   35.8711 O.3         1 MOL      -0.2040
     24 P         -34.2908   56.1656   34.6335 P.3         1 MOL       0.1348
     25 O1P       -34.7792   57.1191   33.6712 O.co2       1 MOL      -0.6653
     26 O2P       -34.2293   54.8769   33.9846 O.co2       1 MOL      -0.6653
     27 O3P       -32.9588   56.5919   34.9995 O.co2       1 MOL      -0.6653
     28 N         -31.5806   50.8764   38.9155 N.am        1 MOL      -0.2712
     29 CA        -30.4707   50.3268   38.1550 C.3         1 MOL       0.1461
     30 CH3       -29.5003   49.8183   39.2737 C.3         1 MOL      -0.0287
     31 C         -29.9120   51.4350   37.3551 C.2         1 MOL       0.2294
     32 O         -30.6495   51.9827   36.5445 O.2         1 MOL      -0.3416
     33 CB        -30.9379   49.1022   37.2550 C.3         1 MOL       0.0325
     34 CG        -29.9979   47.9670   36.9860 C.ar        1 MOL      -0.0034
     35 CD1       -28.6430   48.1771   36.6283 C.ar        1 MOL      -0.0242
     36 CD2       -30.4683   46.6323   37.0792 C.ar        1 MOL      -0.0242
     37 CE1       -27.7797   47.0813   36.4185 C.ar        1 MOL       0.0115
     38 CE2       -29.6088   45.5396   36.8668 C.ar        1 MOL       0.0115
     39 CZ        -28.2575   45.7564   36.5268 C.ar        1 MOL       0.1728
     40 OH        -27.4142   44.6845   36.4043 O.3         1 MOL      -0.2040
     41 P         -27.6784   43.8163   35.1384 P.3         1 MOL       0.1348
     42 O1P       -26.8983   42.6124   35.2583 O.co2       1 MOL      -0.6653
     43 O2P       -27.2608   44.4696   33.9207 O.co2       1 MOL      -0.6653
     44 O3P       -29.0442   43.3802   34.9939 O.co2       1 MOL      -0.6653
     45 N         -28.6973   51.9421   37.5602 N.am        1 MOL      -0.2663
     46 CA        -28.0946   53.1126   36.9686 C.3         1 MOL       0.1112
     47 C         -28.9134   54.3351   37.1577 C.2         1 MOL       0.0626
     48 O         -28.3000   55.5487   37.2060 O.co2       1 MOL      -0.5664
     49 CB        -27.6721   52.9267   35.4741 C.3         1 MOL       0.0720
     50 CG        -26.3588   52.3478   35.3113 C.2         1 MOL       0.1774
     51 OD1       -26.1840   51.3051   34.6923 O.2         1 MOL      -0.3971
     52 ND2       -25.2955   52.9788   35.7727 N.am        1 MOL      -0.3007
     53 OXT       -30.2543   54.3179   36.9608 O.co2       1 MOL      -0.5664
     54 H1        -30.0432   45.4273   39.3908 H           1 MOL       0.0566
     55 H2        -32.0162   46.6693   40.0222 H           1 MOL       0.0448
     56 H3        -31.2922   45.7064   44.0720 H           1 MOL       0.0451
     57 H4        -28.7042   44.3118   41.0541 H           1 MOL       0.0459
     58 H5        -33.2672   46.9723   43.5528 H           1 MOL       0.0774
     59 H6        -33.9224   46.5062   41.9877 H           1 MOL       0.0774
     60 H7        -29.3980   44.2765   44.5501 H           1 MOL       0.1718
     61 H8        -28.3953   43.7203   43.3188 H           1 MOL       0.1718
     62 H9        -33.1332   50.8208   41.6730 H           1 MOL       0.1902
     63 H10       -34.8511   50.8611   39.4327 H           1 MOL       0.0839
     64 H11       -32.9186   52.9230   40.5723 H           1 MOL       0.0584
     65 H12       -34.6316   52.7788   40.9158 H           1 MOL       0.0584
     66 H13       -35.9403   52.5265   38.3366 H           1 MOL       0.0703
     67 H14       -32.6696   54.9829   39.4011 H           1 MOL       0.0703
     68 H15       -36.4554   54.0137   36.5218 H           1 MOL       0.0736
     69 H16       -33.2591   56.5054   37.6415 H           1 MOL       0.0736
     70 H17       -31.3502   51.2276   39.7931 H           1 MOL       0.1842
     71 H18       -28.5518   49.4876   38.8421 H           1 MOL       0.0244
     72 H19       -29.9600   48.9738   39.8060 H           1 MOL       0.0244
     73 H20       -29.2779   50.6005   40.0116 H           1 MOL       0.0244
     74 H21       -31.2579   49.4531   36.2713 H           1 MOL       0.0549
     75 H22       -31.8414   48.7061   37.7247 H           1 MOL       0.0549
     76 H23       -28.2773   49.1242   36.5307 H           1 MOL       0.0703
     77 H24       -31.4479   46.4390   37.3086 H           1 MOL       0.0703
     78 H25       -26.7970   47.2512   36.1909 H           1 MOL       0.0736
     79 H26       -29.9755   44.5924   36.9572 H           1 MOL       0.0736
     80 H27       -28.1417   51.4852   38.2121 H           1 MOL       0.1883
     81 H28       -27.1815   53.2825   37.5448 H           1 MOL       0.0754
     82 H29       -27.6550   53.8949   34.9555 H           1 MOL       0.0544
     83 H30       -28.4141   52.3148   34.9552 H           1 MOL       0.0544
     84 H31       -24.4121   52.6236   35.6153 H           1 MOL       0.1814
     85 H32       -25.3931   53.8205   36.2455 H           1 MOL       0.1814
@<TRIPOS>BOND
     1     1     5  ar
     2     2     1  ar
     3     3     2  ar
     4     6     3   1
     5     3     4  ar
     6     4    11  ar
     7    11    10   1
     8    11     5  ar
     9     7     6   1
    10     8     7   1
    11     8     9   2
    12    13    12   1
    13    13    16   1
    14    14    13   1
    15    14    15   2
    16    16    17   1
    17    17    19  ar
    18    17    18  ar
    19    18    20  ar
    20    20    22  ar
    21    22    23   1
    22    21    22  ar
    23    19    21  ar
    24    23    24   1
    25    24    27  ar
    26    24    26  ar
    27    24    25  ar
    28    29    28   1
    29    29    33   1
    30    31    29   1
    31    29    30   1
    32    31    32   2
    33    33    34   1
    34    34    36  ar
    35    34    35  ar
    36    35    37  ar
    37    37    39  ar
    38    39    40   1
    39    38    39  ar
    40    36    38  ar
    41    40    41   1
    42    41    44  ar
    43    41    43  ar
    44    41    42  ar
    45    46    47   1
    46    46    49   1
    47    45    46   1
    48    49    50   1
    49    50    51   2
    50    50    52  am
    51    47    53  ar
    52    47    48  ar
    53    28    14  am
    54    12     8  am
    55    31    45  am
    56     1    54   1
    57     2    55   1
    58     4    56   1
    59     5    57   1
    60     6    58   1
    61     6    59   1
    62    10    60   1
    63    10    61   1
    64    12    62   1
    65    13    63   1
    66    16    64   1
    67    16    65   1
    68    18    66   1
    69    19    67   1
    70    20    68   1
    71    21    69   1
    72    28    70   1
    73    30    71   1
    74    30    72   1
    75    30    73   1
    76    33    74   1
    77    33    75   1
    78    35    76   1
    79    36    77   1
    80    37    78   1
    81    38    79   1
    82    45    80   1
    83    46    81   1
    84    49    82   1
    85    49    83   1
    86    52    84   1
    87    52    85   1
@<TRIPOS>SUBSTRUCTURE
     1  MOL      1

