@<TRIPOS>MOLECULE
1jyq_ligand_013
    85    87
SMALL
GAST_HUCK
****
This file was generated by PARSER (from files_GN.cpp)

@<TRIPOS>ATOM
      1 C1        -28.1781   46.5424   29.8505 C.ar        1 MOL      -0.0801
      2 C2        -28.5780   45.1961   29.7582 C.ar        1 MOL      -0.0711
      3 C3        -28.0337   44.2189   30.6205 C.ar        1 MOL      -0.0250
      4 C4        -27.0991   44.6261   31.6022 C.ar        1 MOL      -0.0414
      5 C6        -27.2410   46.9334   30.8208 C.ar        1 MOL      -0.0516
      6 C12       -28.4601   42.8070   30.4839 C.3         1 MOL       0.1084
      7 O13       -28.2038   42.3595   29.1441 O.3         1 MOL      -0.2508
      8 C16       -28.4055   41.0936   28.6764 C.2         1 MOL       0.3241
      9 O18       -28.9273   40.1110   29.4803 O.2         1 MOL      -0.3773
     10 N11       -25.8349   46.3652   32.6592 N.pl3       1 MOL      -0.3383
     11 C5        -26.7059   45.9791   31.7092 C.ar        1 MOL       0.0282
     12 N         -27.9683   40.8471   27.4138 N.am        1 MOL      -0.2380
     13 CA        -27.9224   39.5819   26.7268 C.3         1 MOL       0.1484
     14 C         -26.9755   38.6695   27.3954 C.2         1 MOL       0.2046
     15 O         -25.9327   38.3321   26.8412 O.2         1 MOL      -0.3944
     16 CB        -27.6596   39.7941   25.1924 C.3         1 MOL       0.0400
     17 CG        -26.4310   40.5631   24.8345 C.ar        1 MOL      -0.0004
     18 CD1       -25.1972   39.9105   24.5900 C.ar        1 MOL      -0.0239
     19 CD2       -26.4647   41.9740   24.7560 C.ar        1 MOL      -0.0239
     20 CE1       -24.0214   40.6476   24.3609 C.ar        1 MOL       0.0115
     21 CE2       -25.2905   42.7161   24.5286 C.ar        1 MOL       0.0115
     22 CZ        -24.0609   42.0599   24.3249 C.ar        1 MOL       0.1728
     23 OH        -22.9011   42.7784   24.2265 O.3         1 MOL      -0.2040
     24 P         -22.6037   43.3343   22.8094 P.3         1 MOL       0.1348
     25 O1P       -22.1229   42.3201   21.8964 O.co2       1 MOL      -0.6653
     26 O2P       -21.5457   44.3035   22.9614 O.co2       1 MOL      -0.6653
     27 O3P       -23.7242   44.0374   22.2275 O.co2       1 MOL      -0.6653
     28 N         -27.2922   38.1671   28.5850 N.am        1 MOL      -0.2712
     29 CA        -26.6080   37.1834   29.4225 C.3         1 MOL       0.1461
     30 CH3       -27.5664   37.0412   30.6574 C.3         1 MOL      -0.0287
     31 C         -25.2863   37.7449   29.8244 C.2         1 MOL       0.2294
     32 O         -24.4097   37.8359   28.9714 O.2         1 MOL      -0.3416
     33 CB        -26.4729   35.7570   28.7236 C.3         1 MOL       0.0325
     34 CG        -27.1654   35.6033   27.4101 C.ar        1 MOL      -0.0034
     35 CD1       -28.5759   35.6845   27.3172 C.ar        1 MOL      -0.0242
     36 CD2       -26.4234   35.4290   26.2190 C.ar        1 MOL      -0.0242
     37 CE1       -29.2176   35.6610   26.0663 C.ar        1 MOL       0.0115
     38 CE2       -27.0647   35.4129   24.9661 C.ar        1 MOL       0.0115
     39 CZ        -28.4631   35.5699   24.8789 C.ar        1 MOL       0.1728
     40 OH        -29.0888   35.5203   23.6601 O.3         1 MOL      -0.2040
     41 P         -29.2294   36.9071   22.9671 P.3         1 MOL       0.1348
     42 O1P       -27.9656   37.4328   22.5076 O.co2       1 MOL      -0.6653
     43 O2P       -29.8948   37.8820   23.7960 O.co2       1 MOL      -0.6653
     44 O3P       -30.0503   36.7181   21.7955 O.co2       1 MOL      -0.6653
     45 N         -24.9948   38.1422   31.0611 N.am        1 MOL      -0.2663
     46 CA        -23.7584   38.7166   31.5277 C.3         1 MOL       0.1112
     47 C         -23.7645   38.7877   33.0065 C.2         1 MOL       0.0626
     48 O         -22.6219   38.5798   33.6976 O.co2       1 MOL      -0.5664
     49 CB        -23.4974   40.1373   30.9154 C.3         1 MOL       0.0720
     50 CG        -22.6920   40.1270   29.7078 C.2         1 MOL       0.1774
     51 OD1       -23.1995   40.2671   28.6075 O.2         1 MOL      -0.3971
     52 ND2       -21.3771   40.0322   29.7765 N.am        1 MOL      -0.3007
     53 OXT       -24.9154   38.8180   33.7216 O.co2       1 MOL      -0.5664
     54 H1        -28.5751   47.2374   29.2157 H           1 MOL       0.0566
     55 H2        -29.2572   44.9321   29.0433 H           1 MOL       0.0448
     56 H3        -26.6995   43.9409   32.2516 H           1 MOL       0.0451
     57 H4        -26.9644   47.9160   30.8892 H           1 MOL       0.0459
     58 H5        -29.5300   42.7246   30.7081 H           1 MOL       0.0774
     59 H6        -27.9149   42.1613   31.1831 H           1 MOL       0.0774
     60 H7        -25.4864   45.7215   33.2988 H           1 MOL       0.1718
     61 H8        -25.5717   47.2975   32.7321 H           1 MOL       0.1718
     62 H9        -27.6208   41.6160   26.9325 H           1 MOL       0.1902
     63 H10       -28.9148   39.1231   26.7962 H           1 MOL       0.0839
     64 H11       -28.5267   40.3032   24.7591 H           1 MOL       0.0584
     65 H12       -27.6242   38.8125   24.7117 H           1 MOL       0.0584
     66 H13       -25.1350   38.8929   24.6136 H           1 MOL       0.0703
     67 H14       -27.3479   42.4797   24.8905 H           1 MOL       0.0703
     68 H15       -23.1303   40.1614   24.2406 H           1 MOL       0.0736
     69 H16       -25.3333   43.7380   24.5211 H           1 MOL       0.0736
     70 H17       -28.1421   38.4745   28.9330 H           1 MOL       0.1842
     71 H18       -27.1459   36.3657   31.4040 H           1 MOL       0.0244
     72 H19       -28.5380   36.6519   30.3587 H           1 MOL       0.0244
     73 H20       -27.7456   38.0098   31.1383 H           1 MOL       0.0244
     74 H21       -26.8437   34.9722   29.3870 H           1 MOL       0.0549
     75 H22       -25.4192   35.5072   28.5854 H           1 MOL       0.0549
     76 H23       -29.1491   35.7577   28.1583 H           1 MOL       0.0703
     77 H24       -25.4068   35.3453   26.2467 H           1 MOL       0.0703
     78 H25       -30.2377   35.7251   26.0181 H           1 MOL       0.0736
     79 H26       -26.5102   35.3033   24.1135 H           1 MOL       0.0736
     80 H27       -25.6845   38.0304   31.7270 H           1 MOL       0.1883
     81 H28       -22.9455   38.0356   31.2538 H           1 MOL       0.0754
     82 H29       -22.9784   40.7863   31.6334 H           1 MOL       0.0544
     83 H30       -24.4618   40.6150   30.7184 H           1 MOL       0.0544
     84 H31       -20.8473   40.0688   28.9663 H           1 MOL       0.1814
     85 H32       -20.9395   39.9702   30.6392 H           1 MOL       0.1814
@<TRIPOS>BOND
     1     1     5  ar
     2     2     1  ar
     3     3     2  ar
     4     6     3   1
     5     3     4  ar
     6     4    11  ar
     7    11    10   1
     8    11     5  ar
     9     7     6   1
    10     8     7   1
    11     8     9   2
    12    13    12   1
    13    13    16   1
    14    14    13   1
    15    14    15   2
    16    16    17   1
    17    17    19  ar
    18    17    18  ar
    19    18    20  ar
    20    20    22  ar
    21    22    23   1
    22    21    22  ar
    23    19    21  ar
    24    23    24   1
    25    24    27  ar
    26    24    26  ar
    27    24    25  ar
    28    29    28   1
    29    29    33   1
    30    31    29   1
    31    29    30   1
    32    31    32   2
    33    33    34   1
    34    34    36  ar
    35    34    35  ar
    36    35    37  ar
    37    37    39  ar
    38    39    40   1
    39    38    39  ar
    40    36    38  ar
    41    40    41   1
    42    41    44  ar
    43    41    43  ar
    44    41    42  ar
    45    46    47   1
    46    46    49   1
    47    45    46   1
    48    49    50   1
    49    50    51   2
    50    50    52  am
    51    47    53  ar
    52    47    48  ar
    53    28    14  am
    54    12     8  am
    55    31    45  am
    56     1    54   1
    57     2    55   1
    58     4    56   1
    59     5    57   1
    60     6    58   1
    61     6    59   1
    62    10    60   1
    63    10    61   1
    64    12    62   1
    65    13    63   1
    66    16    64   1
    67    16    65   1
    68    18    66   1
    69    19    67   1
    70    20    68   1
    71    21    69   1
    72    28    70   1
    73    30    71   1
    74    30    72   1
    75    30    73   1
    76    33    74   1
    77    33    75   1
    78    35    76   1
    79    36    77   1
    80    37    78   1
    81    38    79   1
    82    45    80   1
    83    46    81   1
    84    49    82   1
    85    49    83   1
    86    52    84   1
    87    52    85   1
@<TRIPOS>SUBSTRUCTURE
     1  MOL      1

