@<TRIPOS>MOLECULE
1jyq_ligand_015
    85    87
SMALL
GAST_HUCK
****
This file was generated by PARSER (from files_GN.cpp)

@<TRIPOS>ATOM
      1 C1        -25.6501   43.2888   32.5657 C.ar        1 MOL      -0.0801
      2 C2        -26.7134   43.8429   33.2948 C.ar        1 MOL      -0.0711
      3 C3        -27.7928   43.0376   33.7286 C.ar        1 MOL      -0.0250
      4 C4        -27.7996   41.6647   33.3876 C.ar        1 MOL      -0.0414
      5 C6        -25.6750   41.9230   32.2186 C.ar        1 MOL      -0.0516
      6 C12       -28.8949   43.6306   34.5282 C.3         1 MOL       0.1084
      7 O13       -28.7360   45.0438   34.7109 O.3         1 MOL      -0.2508
      8 C16       -28.0375   45.6792   35.6845 C.2         1 MOL       0.3241
      9 O18       -27.3972   44.9765   36.6537 O.2         1 MOL      -0.3773
     10 N11       -26.7883   39.8128   32.2652 N.pl3       1 MOL      -0.3383
     11 C5        -26.7540   41.1144   32.6232 C.ar        1 MOL       0.0282
     12 N         -27.9399   47.0172   35.5799 N.am        1 MOL      -0.2380
     13 CA        -27.0889   47.8941   36.3426 C.3         1 MOL       0.1484
     14 C         -27.8791   48.8290   37.1469 C.2         1 MOL       0.2046
     15 O         -27.2631   49.5670   37.9096 O.2         1 MOL      -0.3944
     16 CB        -26.0156   48.6163   35.4420 C.3         1 MOL       0.0400
     17 CG        -26.3267   48.6992   33.9826 C.ar        1 MOL      -0.0004
     18 CD1       -27.2889   49.6232   33.5189 C.ar        1 MOL      -0.0239
     19 CD2       -25.6785   47.8658   33.0411 C.ar        1 MOL      -0.0239
     20 CE1       -27.5967   49.7144   32.1538 C.ar        1 MOL       0.0115
     21 CE2       -26.0095   47.9401   31.6734 C.ar        1 MOL       0.0115
     22 CZ        -26.9749   48.8628   31.2182 C.ar        1 MOL       0.1728
     23 OH        -27.2328   48.9950   29.8791 O.3         1 MOL      -0.2040
     24 P         -28.3170   48.0278   29.3235 P.3         1 MOL       0.1348
     25 O1P       -27.7844   47.0121   28.4466 O.co2       1 MOL      -0.6653
     26 O2P       -29.2235   48.8037   28.5046 O.co2       1 MOL      -0.6653
     27 O3P       -29.1287   47.4116   30.3451 O.co2       1 MOL      -0.6653
     28 N         -29.2086   48.9157   37.0578 N.am        1 MOL      -0.2712
     29 CA        -30.1469   49.7058   37.8408 C.3         1 MOL       0.1461
     30 CH3       -31.2107   50.2464   36.8257 C.3         1 MOL      -0.0287
     31 C         -29.4798   50.8808   38.4538 C.2         1 MOL       0.2294
     32 O         -29.3875   50.9864   39.6761 O.2         1 MOL      -0.3416
     33 CB        -30.8449   48.7872   38.9161 C.3         1 MOL       0.0325
     34 CG        -31.5216   47.5567   38.4165 C.ar        1 MOL      -0.0034
     35 CD1       -30.7825   46.4442   37.9577 C.ar        1 MOL      -0.0242
     36 CD2       -32.9342   47.4740   38.4269 C.ar        1 MOL      -0.0242
     37 CE1       -31.4373   45.2799   37.5180 C.ar        1 MOL       0.0115
     38 CE2       -33.5895   46.3185   37.9738 C.ar        1 MOL       0.0115
     39 CZ        -32.8458   45.2002   37.5407 C.ar        1 MOL       0.1728
     40 OH        -33.5083   44.0890   37.0887 O.3         1 MOL      -0.2040
     41 P         -33.7655   43.0179   38.1800 P.3         1 MOL       0.1348
     42 O1P       -32.5433   42.4127   38.6471 O.co2       1 MOL      -0.6653
     43 O2P       -34.5665   41.9786   37.5580 O.co2       1 MOL      -0.6653
     44 O3P       -34.5389   43.4998   39.3022 O.co2       1 MOL      -0.6653
     45 N         -28.9015   51.7898   37.6781 N.am        1 MOL      -0.2663
     46 CA        -28.1949   52.9752   38.0912 C.3         1 MOL       0.1112
     47 C         -29.0741   54.1609   37.9661 C.2         1 MOL       0.0626
     48 O         -30.4092   54.0613   37.8038 O.co2       1 MOL      -0.5664
     49 CB        -26.8690   53.0755   37.2760 C.3         1 MOL       0.0720
     50 CG        -27.0346   53.6920   35.9745 C.2         1 MOL       0.1774
     51 OD1       -27.1682   54.9109   35.8822 O.2         1 MOL      -0.3971
     52 ND2       -27.1734   52.9748   34.8837 N.am        1 MOL      -0.3007
     53 OXT       -28.5603   55.3982   37.8347 O.co2       1 MOL      -0.5664
     54 H1        -24.8644   43.8728   32.2834 H           1 MOL       0.0566
     55 H2        -26.6848   44.8384   33.5337 H           1 MOL       0.0448
     56 H3        -28.5641   41.0621   33.6875 H           1 MOL       0.0451
     57 H4        -24.8989   41.5260   31.6767 H           1 MOL       0.0459
     58 H5        -28.9912   43.1583   35.5098 H           1 MOL       0.0774
     59 H6        -29.8328   43.4731   33.9930 H           1 MOL       0.0774
     60 H7        -27.5326   39.2545   32.5406 H           1 MOL       0.1718
     61 H8        -26.0720   39.4316   31.7257 H           1 MOL       0.1718
     62 H9        -28.4292   47.4243   34.8473 H           1 MOL       0.1902
     63 H10       -26.5443   47.2833   37.0746 H           1 MOL       0.0839
     64 H11       -25.0623   48.0936   35.5839 H           1 MOL       0.0584
     65 H12       -25.8258   49.6332   35.7996 H           1 MOL       0.0584
     66 H13       -27.7873   50.2161   34.1779 H           1 MOL       0.0703
     67 H14       -24.9788   47.1817   33.3453 H           1 MOL       0.0703
     68 H15       -28.2781   50.4003   31.8388 H           1 MOL       0.0736
     69 H16       -25.5300   47.3279   31.0052 H           1 MOL       0.0736
     70 H17       -29.6183   48.3386   36.3875 H           1 MOL       0.1842
     71 H18       -31.9744   50.8280   37.3460 H           1 MOL       0.0244
     72 H19       -31.7013   49.4233   36.3002 H           1 MOL       0.0244
     73 H20       -30.7490   50.8821   36.0623 H           1 MOL       0.0244
     74 H21       -31.5815   49.3925   39.4510 H           1 MOL       0.0549
     75 H22       -30.1148   48.4973   39.6701 H           1 MOL       0.0549
     76 H23       -29.7638   46.4749   37.9485 H           1 MOL       0.0703
     77 H24       -33.5072   48.2667   38.7484 H           1 MOL       0.0703
     78 H25       -30.8910   44.4872   37.1841 H           1 MOL       0.0736
     79 H26       -34.6175   46.2843   37.9668 H           1 MOL       0.0736
     80 H27       -29.0023   51.6784   36.7148 H           1 MOL       0.1883
     81 H28       -27.9142   52.9079   39.1445 H           1 MOL       0.0754
     82 H29       -26.4425   52.0699   37.1700 H           1 MOL       0.0544
     83 H30       -26.1360   53.6552   37.8548 H           1 MOL       0.0544
     84 H31       -27.3918   53.4142   34.0468 H           1 MOL       0.1814
     85 H32       -27.1404   52.0014   34.9471 H           1 MOL       0.1814
@<TRIPOS>BOND
     1     1     5  ar
     2     2     1  ar
     3     3     2  ar
     4     6     3   1
     5     3     4  ar
     6     4    11  ar
     7    11    10   1
     8    11     5  ar
     9     7     6   1
    10     8     7   1
    11     8     9   2
    12    13    12   1
    13    13    16   1
    14    14    13   1
    15    14    15   2
    16    16    17   1
    17    17    19  ar
    18    17    18  ar
    19    18    20  ar
    20    20    22  ar
    21    22    23   1
    22    21    22  ar
    23    19    21  ar
    24    23    24   1
    25    24    27  ar
    26    24    26  ar
    27    24    25  ar
    28    29    28   1
    29    29    33   1
    30    31    29   1
    31    29    30   1
    32    31    32   2
    33    33    34   1
    34    34    36  ar
    35    34    35  ar
    36    35    37  ar
    37    37    39  ar
    38    39    40   1
    39    38    39  ar
    40    36    38  ar
    41    40    41   1
    42    41    44  ar
    43    41    43  ar
    44    41    42  ar
    45    46    47   1
    46    46    49   1
    47    45    46   1
    48    49    50   1
    49    50    51   2
    50    50    52  am
    51    47    53  ar
    52    47    48  ar
    53    28    14  am
    54    12     8  am
    55    31    45  am
    56     1    54   1
    57     2    55   1
    58     4    56   1
    59     5    57   1
    60     6    58   1
    61     6    59   1
    62    10    60   1
    63    10    61   1
    64    12    62   1
    65    13    63   1
    66    16    64   1
    67    16    65   1
    68    18    66   1
    69    19    67   1
    70    20    68   1
    71    21    69   1
    72    28    70   1
    73    30    71   1
    74    30    72   1
    75    30    73   1
    76    33    74   1
    77    33    75   1
    78    35    76   1
    79    36    77   1
    80    37    78   1
    81    38    79   1
    82    45    80   1
    83    46    81   1
    84    49    82   1
    85    49    83   1
    86    52    84   1
    87    52    85   1
@<TRIPOS>SUBSTRUCTURE
     1  MOL      1

