@<TRIPOS>MOLECULE
1jyq_ligand_049
    85    87
SMALL
GAST_HUCK
****
This file was generated by PARSER (from files_GN.cpp)

@<TRIPOS>ATOM
      1 C1        -32.9609   50.5471   42.1155 C.ar        1 MOL      -0.0801
      2 C2        -33.0639   49.2307   41.6308 C.ar        1 MOL      -0.0711
      3 C3        -32.3098   48.1868   42.2173 C.ar        1 MOL      -0.0250
      4 C4        -31.4352   48.4948   43.2849 C.ar        1 MOL      -0.0414
      5 C6        -32.1012   50.8385   43.1886 C.ar        1 MOL      -0.0516
      6 C12       -32.4135   46.8008   41.7053 C.3         1 MOL       0.1084
      7 O13       -31.4194   46.5908   40.6935 O.3         1 MOL      -0.2508
      8 C16       -31.6076   46.4072   39.3588 C.2         1 MOL       0.3241
      9 O18       -32.8439   46.4815   38.8028 O.2         1 MOL      -0.3773
     10 N11       -30.5157   50.0837   44.8071 N.pl3       1 MOL      -0.3383
     11 C5        -31.3339   49.8120   43.7771 C.ar        1 MOL       0.0282
     12 N         -30.5207   46.1150   38.6212 N.am        1 MOL      -0.2380
     13 CA        -30.4507   45.8971   37.1973 C.3         1 MOL       0.1484
     14 C         -30.4406   47.1512   36.4368 C.2         1 MOL       0.2046
     15 O         -30.8475   47.1542   35.2837 O.2         1 MOL      -0.3944
     16 CB        -31.5110   44.8398   36.7172 C.3         1 MOL       0.0400
     17 CG        -31.0352   43.9594   35.6144 C.ar        1 MOL      -0.0004
     18 CD1       -31.1801   44.3334   34.2555 C.ar        1 MOL      -0.0239
     19 CD2       -30.4463   42.7084   35.9088 C.ar        1 MOL      -0.0239
     20 CE1       -30.7211   43.4967   33.2247 C.ar        1 MOL       0.0115
     21 CE2       -30.0179   41.8549   34.8756 C.ar        1 MOL       0.0115
     22 CZ        -30.1160   42.2567   33.5284 C.ar        1 MOL       0.1728
     23 OH        -29.7239   41.4019   32.5368 O.3         1 MOL      -0.2040
     24 P         -28.1890   41.3876   32.2802 P.3         1 MOL       0.1348
     25 O1P       -27.7591   42.5115   31.4837 O.co2       1 MOL      -0.6653
     26 O2P       -27.9155   40.1880   31.5199 O.co2       1 MOL      -0.6653
     27 O3P       -27.4032   41.2944   33.4897 O.co2       1 MOL      -0.6653
     28 N         -29.8141   48.2177   36.9257 N.am        1 MOL      -0.2712
     29 CA        -29.5371   49.5127   36.3285 C.3         1 MOL       0.1461
     30 CH3       -28.3660   49.3358   35.3068 C.3         1 MOL      -0.0287
     31 C         -29.0826   50.4451   37.3827 C.2         1 MOL       0.2294
     32 O         -28.9865   50.0758   38.5524 O.2         1 MOL      -0.3416
     33 CB        -30.8090   50.0978   35.6019 C.3         1 MOL       0.0325
     34 CG        -32.1174   49.9022   36.3005 C.ar        1 MOL      -0.0034
     35 CD1       -33.1977   49.2430   35.6634 C.ar        1 MOL      -0.0242
     36 CD2       -32.3341   50.4279   37.5997 C.ar        1 MOL      -0.0242
     37 CE1       -34.4403   49.1015   36.3047 C.ar        1 MOL       0.0115
     38 CE2       -33.5665   50.2646   38.2496 C.ar        1 MOL       0.0115
     39 CZ        -34.6273   49.5890   37.6181 C.ar        1 MOL       0.1728
     40 OH        -35.8249   49.5199   38.2785 O.3         1 MOL      -0.2040
     41 P         -36.2060   48.1291   38.8418 P.3         1 MOL       0.1348
     42 O1P       -35.1930   47.5327   39.6917 O.co2       1 MOL      -0.6653
     43 O2P       -36.5111   47.2093   37.7713 O.co2       1 MOL      -0.6653
     44 O3P       -37.4016   48.2565   39.6511 O.co2       1 MOL      -0.6653
     45 N         -28.8124   51.7133   37.0799 N.am        1 MOL      -0.2663
     46 CA        -28.4309   52.7800   37.9708 C.3         1 MOL       0.1112
     47 C         -29.1492   54.0220   37.6107 C.2         1 MOL       0.0626
     48 O         -29.8072   54.7385   38.5561 O.co2       1 MOL      -0.5664
     49 CB        -26.8825   52.9489   37.9909 C.3         1 MOL       0.0720
     50 CG        -26.2623   53.4754   36.7837 C.2         1 MOL       0.1774
     51 OD1       -26.6432   54.5238   36.2796 O.2         1 MOL      -0.3971
     52 ND2       -25.1919   52.9133   36.2614 N.am        1 MOL      -0.3007
     53 OXT       -29.2664   54.4365   36.3355 O.co2       1 MOL      -0.5664
     54 H1        -33.5166   51.2928   41.6904 H           1 MOL       0.0566
     55 H2        -33.6919   49.0358   40.8486 H           1 MOL       0.0448
     56 H3        -30.8630   47.7564   43.7064 H           1 MOL       0.0451
     57 H4        -32.0375   51.7963   43.5402 H           1 MOL       0.0459
     58 H5        -33.4225   46.6027   41.3349 H           1 MOL       0.0774
     59 H6        -32.2419   46.0835   42.5111 H           1 MOL       0.0774
     60 H7        -30.0137   49.3653   45.2262 H           1 MOL       0.1718
     61 H8        -30.4433   50.9909   45.1488 H           1 MOL       0.1718
     62 H9        -29.6684   46.1331   39.0927 H           1 MOL       0.1902
     63 H10       -29.4561   45.4672   37.0372 H           1 MOL       0.0839
     64 H11       -32.4327   45.3410   36.4098 H           1 MOL       0.0584
     65 H12       -31.7891   44.2042   37.5604 H           1 MOL       0.0584
     66 H13       -31.6301   45.2173   34.0085 H           1 MOL       0.0703
     67 H14       -30.3420   42.3993   36.8803 H           1 MOL       0.0703
     68 H15       -30.8382   43.7795   32.2509 H           1 MOL       0.0736
     69 H16       -29.6331   40.9389   35.1047 H           1 MOL       0.0736
     70 H17       -29.4466   48.0925   37.8140 H           1 MOL       0.1842
     71 H18       -28.1198   50.2856   34.8250 H           1 MOL       0.0244
     72 H19       -28.6264   48.6314   34.5163 H           1 MOL       0.0244
     73 H20       -27.4705   48.9657   35.8104 H           1 MOL       0.0244
     74 H21       -30.8681   49.6558   34.6033 H           1 MOL       0.0549
     75 H22       -30.6823   51.1701   35.4253 H           1 MOL       0.0549
     76 H23       -33.0864   48.8706   34.7159 H           1 MOL       0.0703
     77 H24       -31.5988   50.9550   38.0742 H           1 MOL       0.0703
     78 H25       -35.2079   48.6415   35.8163 H           1 MOL       0.0736
     79 H26       -33.6957   50.6543   39.1851 H           1 MOL       0.0736
     80 H27       -28.8747   51.9476   36.1392 H           1 MOL       0.1883
     81 H28       -28.7290   52.5364   38.9960 H           1 MOL       0.0754
     82 H29       -26.4595   51.9630   38.2039 H           1 MOL       0.0544
     83 H30       -26.6123   53.5873   38.8369 H           1 MOL       0.0544
     84 H31       -24.7120   53.3530   35.5373 H           1 MOL       0.1814
     85 H32       -24.8195   52.1128   36.6732 H           1 MOL       0.1814
@<TRIPOS>BOND
     1     1     5  ar
     2     2     1  ar
     3     3     2  ar
     4     6     3   1
     5     3     4  ar
     6     4    11  ar
     7    11    10   1
     8    11     5  ar
     9     7     6   1
    10     8     7   1
    11     8     9   2
    12    13    12   1
    13    13    16   1
    14    14    13   1
    15    14    15   2
    16    16    17   1
    17    17    19  ar
    18    17    18  ar
    19    18    20  ar
    20    20    22  ar
    21    22    23   1
    22    21    22  ar
    23    19    21  ar
    24    23    24   1
    25    24    27  ar
    26    24    26  ar
    27    24    25  ar
    28    29    28   1
    29    29    33   1
    30    31    29   1
    31    29    30   1
    32    31    32   2
    33    33    34   1
    34    34    36  ar
    35    34    35  ar
    36    35    37  ar
    37    37    39  ar
    38    39    40   1
    39    38    39  ar
    40    36    38  ar
    41    40    41   1
    42    41    44  ar
    43    41    43  ar
    44    41    42  ar
    45    46    47   1
    46    46    49   1
    47    45    46   1
    48    49    50   1
    49    50    51   2
    50    50    52  am
    51    47    53  ar
    52    47    48  ar
    53    28    14  am
    54    12     8  am
    55    31    45  am
    56     1    54   1
    57     2    55   1
    58     4    56   1
    59     5    57   1
    60     6    58   1
    61     6    59   1
    62    10    60   1
    63    10    61   1
    64    12    62   1
    65    13    63   1
    66    16    64   1
    67    16    65   1
    68    18    66   1
    69    19    67   1
    70    20    68   1
    71    21    69   1
    72    28    70   1
    73    30    71   1
    74    30    72   1
    75    30    73   1
    76    33    74   1
    77    33    75   1
    78    35    76   1
    79    36    77   1
    80    37    78   1
    81    38    79   1
    82    45    80   1
    83    46    81   1
    84    49    82   1
    85    49    83   1
    86    52    84   1
    87    52    85   1
@<TRIPOS>SUBSTRUCTURE
     1  MOL      1

