@<TRIPOS>MOLECULE
1jyq_ligand_005
    85    87
SMALL
GAST_HUCK
****
This file was generated by PARSER (from files_GN.cpp)

@<TRIPOS>ATOM
      1 C1        -23.5498   40.4314   26.5831 C.ar        1 MOL      -0.0801
      2 C2        -22.9583   40.0892   27.8135 C.ar        1 MOL      -0.0711
      3 C3        -21.7717   40.7268   28.2461 C.ar        1 MOL      -0.0250
      4 C4        -21.1859   41.7118   27.4126 C.ar        1 MOL      -0.0414
      5 C6        -22.9617   41.4171   25.7678 C.ar        1 MOL      -0.0516
      6 C12       -21.1681   40.3959   29.5604 C.3         1 MOL       0.1084
      7 O13       -21.7649   41.1586   30.6117 O.3         1 MOL      -0.2508
      8 C16       -23.0074   41.0175   31.1544 C.2         1 MOL       0.3241
      9 O18       -23.8446   40.0552   30.6985 O.2         1 MOL      -0.3773
     10 N11       -21.2018   42.9753   25.3820 N.pl3       1 MOL      -0.3383
     11 C5        -21.7740   42.0526   26.1768 C.ar        1 MOL       0.0282
     12 N         -23.3363   41.8840   32.1460 N.am        1 MOL      -0.2380
     13 CA        -24.5510   41.9721   32.9131 C.3         1 MOL       0.1484
     14 C         -25.2054   40.6873   33.1456 C.2         1 MOL       0.2046
     15 O         -24.6274   39.8473   33.8387 O.2         1 MOL      -0.3944
     16 CB        -25.4393   43.1458   32.3825 C.3         1 MOL       0.0400
     17 CG        -26.7146   43.4037   33.1127 C.ar        1 MOL      -0.0004
     18 CD1       -27.8778   43.8369   32.4147 C.ar        1 MOL      -0.0239
     19 CD2       -26.7829   43.3215   34.5215 C.ar        1 MOL      -0.0239
     20 CE1       -29.0634   44.1474   33.1065 C.ar        1 MOL       0.0115
     21 CE2       -27.9667   43.6324   35.2162 C.ar        1 MOL       0.0115
     22 CZ        -29.1232   44.0183   34.5137 C.ar        1 MOL       0.1728
     23 OH        -30.2762   44.2834   35.2003 O.3         1 MOL      -0.2040
     24 P         -30.9042   43.0174   35.8312 P.3         1 MOL       0.1348
     25 O1P       -31.8270   42.3523   34.9403 O.co2       1 MOL      -0.6653
     26 O2P       -31.6484   43.4355   36.9981 O.co2       1 MOL      -0.6653
     27 O3P       -29.9062   42.0834   36.2884 O.co2       1 MOL      -0.6653
     28 N         -26.3631   40.3888   32.5572 N.am        1 MOL      -0.2712
     29 CA        -27.2926   39.2987   32.7470 C.3         1 MOL       0.1461
     30 CH3       -28.5391   40.0241   33.3679 C.3         1 MOL      -0.0287
     31 C         -26.8160   38.2032   33.6299 C.2         1 MOL       0.2294
     32 O         -27.4746   37.8651   34.6081 O.2         1 MOL      -0.3416
     33 CB        -27.6410   38.6823   31.3400 C.3         1 MOL       0.0325
     34 CG        -28.0934   39.6304   30.2750 C.ar        1 MOL      -0.0034
     35 CD1       -29.4056   40.1553   30.2779 C.ar        1 MOL      -0.0242
     36 CD2       -27.2206   40.0030   29.2208 C.ar        1 MOL      -0.0242
     37 CE1       -29.8237   41.0568   29.2781 C.ar        1 MOL       0.0115
     38 CE2       -27.6450   40.8803   28.2132 C.ar        1 MOL       0.0115
     39 CZ        -28.9545   41.4061   28.2262 C.ar        1 MOL       0.1728
     40 OH        -29.3026   42.3319   27.2805 O.3         1 MOL      -0.2040
     41 P         -30.4159   41.8951   26.2795 P.3         1 MOL       0.1348
     42 O1P       -31.2979   43.0321   26.1351 O.co2       1 MOL      -0.6653
     43 O2P       -31.2374   40.7698   26.6527 O.co2       1 MOL      -0.6653
     44 O3P       -29.8652   41.6554   24.9626 O.co2       1 MOL      -0.6653
     45 N         -25.6916   37.5538   33.3559 N.am        1 MOL      -0.2663
     46 CA        -25.0827   36.5255   34.1718 C.3         1 MOL       0.1112
     47 C         -23.6401   36.8712   34.2775 C.2         1 MOL       0.0626
     48 O         -23.2817   37.9325   35.0346 O.co2       1 MOL      -0.5664
     49 CB        -25.3270   35.0692   33.6628 C.3         1 MOL       0.0720
     50 CG        -26.6388   34.8517   33.0913 C.2         1 MOL       0.1774
     51 OD1       -27.0117   35.5385   32.1513 O.2         1 MOL      -0.3971
     52 ND2       -27.4712   33.9251   33.5265 N.am        1 MOL      -0.3007
     53 OXT       -22.7465   36.4646   33.3480 O.co2       1 MOL      -0.5664
     54 H1        -24.4026   39.9605   26.2781 H           1 MOL       0.0566
     55 H2        -23.3986   39.3675   28.3908 H           1 MOL       0.0448
     56 H3        -20.3231   42.1805   27.7076 H           1 MOL       0.0451
     57 H4        -23.3985   41.6591   24.8758 H           1 MOL       0.0459
     58 H5        -20.1021   40.6407   29.5573 H           1 MOL       0.0774
     59 H6        -21.2440   39.3273   29.7783 H           1 MOL       0.0774
     60 H7        -20.3662   43.3920   25.6448 H           1 MOL       0.1718
     61 H8        -21.6169   43.2210   24.5397 H           1 MOL       0.1718
     62 H9        -22.6572   42.5412   32.3604 H           1 MOL       0.1902
     63 H10       -24.2094   42.3030   33.9010 H           1 MOL       0.0839
     64 H11       -25.6343   42.9828   31.3197 H           1 MOL       0.0584
     65 H12       -24.8580   44.0638   32.4502 H           1 MOL       0.0584
     66 H13       -27.8684   43.9358   31.3881 H           1 MOL       0.0703
     67 H14       -25.9695   43.0279   35.0621 H           1 MOL       0.0703
     68 H15       -29.8918   44.4518   32.5902 H           1 MOL       0.0736
     69 H16       -27.9794   43.5691   36.2353 H           1 MOL       0.0736
     70 H17       -26.6963   41.0945   31.9725 H           1 MOL       0.1842
     71 H18       -29.3988   39.3459   33.4267 H           1 MOL       0.0244
     72 H19       -28.8382   40.8997   32.7807 H           1 MOL       0.0244
     73 H20       -28.3194   40.3835   34.3793 H           1 MOL       0.0244
     74 H21       -28.4163   37.9232   31.4670 H           1 MOL       0.0549
     75 H22       -26.7682   38.1539   30.9637 H           1 MOL       0.0549
     76 H23       -30.0672   39.8959   31.0102 H           1 MOL       0.0703
     77 H24       -26.2658   39.6387   29.1846 H           1 MOL       0.0703
     78 H25       -30.7691   41.4491   29.3106 H           1 MOL       0.0736
     79 H26       -27.0054   41.1462   27.4616 H           1 MOL       0.0736
     80 H27       -25.2241   37.7890   32.5410 H           1 MOL       0.1883
     81 H28       -25.4765   36.5603   35.1956 H           1 MOL       0.0754
     82 H29       -25.1793   34.3824   34.5116 H           1 MOL       0.0544
     83 H30       -24.5843   34.7933   32.9208 H           1 MOL       0.0544
     84 H31       -28.3386   33.8163   33.0973 H           1 MOL       0.1814
     85 H32       -27.2268   33.3455   34.2656 H           1 MOL       0.1814
@<TRIPOS>BOND
     1     1     5  ar
     2     2     1  ar
     3     3     2  ar
     4     6     3   1
     5     3     4  ar
     6     4    11  ar
     7    11    10   1
     8    11     5  ar
     9     7     6   1
    10     8     7   1
    11     8     9   2
    12    13    12   1
    13    13    16   1
    14    14    13   1
    15    14    15   2
    16    16    17   1
    17    17    19  ar
    18    17    18  ar
    19    18    20  ar
    20    20    22  ar
    21    22    23   1
    22    21    22  ar
    23    19    21  ar
    24    23    24   1
    25    24    27  ar
    26    24    26  ar
    27    24    25  ar
    28    29    28   1
    29    29    33   1
    30    31    29   1
    31    29    30   1
    32    31    32   2
    33    33    34   1
    34    34    36  ar
    35    34    35  ar
    36    35    37  ar
    37    37    39  ar
    38    39    40   1
    39    38    39  ar
    40    36    38  ar
    41    40    41   1
    42    41    44  ar
    43    41    43  ar
    44    41    42  ar
    45    46    47   1
    46    46    49   1
    47    45    46   1
    48    49    50   1
    49    50    51   2
    50    50    52  am
    51    47    53  ar
    52    47    48  ar
    53    28    14  am
    54    12     8  am
    55    31    45  am
    56     1    54   1
    57     2    55   1
    58     4    56   1
    59     5    57   1
    60     6    58   1
    61     6    59   1
    62    10    60   1
    63    10    61   1
    64    12    62   1
    65    13    63   1
    66    16    64   1
    67    16    65   1
    68    18    66   1
    69    19    67   1
    70    20    68   1
    71    21    69   1
    72    28    70   1
    73    30    71   1
    74    30    72   1
    75    30    73   1
    76    33    74   1
    77    33    75   1
    78    35    76   1
    79    36    77   1
    80    37    78   1
    81    38    79   1
    82    45    80   1
    83    46    81   1
    84    49    82   1
    85    49    83   1
    86    52    84   1
    87    52    85   1
@<TRIPOS>SUBSTRUCTURE
     1  MOL      1

