@<TRIPOS>MOLECULE
1jyq_ligand_025
    85    87
SMALL
GAST_HUCK
****
This file was generated by PARSER (from files_GN.cpp)

@<TRIPOS>ATOM
      1 C1        -32.8114   50.5549   32.6820 C.ar        1 MOL      -0.0801
      2 C2        -31.4625   50.9477   32.6640 C.ar        1 MOL      -0.0711
      3 C3        -30.7145   50.9182   31.4613 C.ar        1 MOL      -0.0250
      4 C4        -31.3628   50.4950   30.2754 C.ar        1 MOL      -0.0414
      5 C6        -33.4410   50.1314   31.4975 C.ar        1 MOL      -0.0516
      6 C12       -29.2770   51.2838   31.4518 C.3         1 MOL       0.1084
      7 O13       -28.4624   50.1764   31.8703 O.3         1 MOL      -0.2508
      8 C16       -28.2571   49.7045   33.1268 C.2         1 MOL       0.3241
      9 O18       -28.8199   50.3238   34.1901 O.2         1 MOL      -0.3773
     10 N11       -33.3121   49.6992   29.1532 N.pl3       1 MOL      -0.3383
     11 C5        -32.7149   50.1059   30.2871 C.ar        1 MOL       0.0282
     12 N         -27.4719   48.6081   33.2490 N.am        1 MOL      -0.2380
     13 CA        -27.0711   47.8913   34.4323 C.3         1 MOL       0.1484
     14 C         -28.2128   47.4384   35.2315 C.2         1 MOL       0.2046
     15 O         -28.9965   48.2639   35.6807 O.2         1 MOL      -0.3944
     16 CB        -25.9201   48.5738   35.2367 C.3         1 MOL       0.0400
     17 CG        -26.2148   49.8992   35.8424 C.ar        1 MOL      -0.0004
     18 CD1       -26.1148   51.0867   35.0771 C.ar        1 MOL      -0.0239
     19 CD2       -26.5844   50.0038   37.2056 C.ar        1 MOL      -0.0239
     20 CE1       -26.4075   52.3364   35.6470 C.ar        1 MOL       0.0115
     21 CE2       -26.8722   51.2543   37.7747 C.ar        1 MOL       0.0115
     22 CZ        -26.8234   52.4277   36.9935 C.ar        1 MOL       0.1728
     23 OH        -27.0973   53.6611   37.5202 O.3         1 MOL      -0.2040
     24 P         -28.6071   54.0486   37.4608 P.3         1 MOL       0.1348
     25 O1P       -28.6295   55.4888   37.5334 O.co2       1 MOL      -0.6653
     26 O2P       -29.3430   53.5450   38.5970 O.co2       1 MOL      -0.6653
     27 O3P       -29.2563   53.6822   36.2259 O.co2       1 MOL      -0.6653
     28 N         -28.4118   46.1286   35.4037 N.am        1 MOL      -0.2712
     29 CA        -29.5478   45.3806   35.8916 C.3         1 MOL       0.1461
     30 CH3       -30.7038   46.2141   36.5474 C.3         1 MOL      -0.0287
     31 C         -29.0560   44.4618   36.9297 C.2         1 MOL       0.2294
     32 O         -29.0845   43.2458   36.7643 O.2         1 MOL      -0.3416
     33 CB        -30.1688   44.6489   34.6351 C.3         1 MOL       0.0325
     34 CG        -29.2446   43.8645   33.7580 C.ar        1 MOL      -0.0034
     35 CD1       -28.5826   44.4802   32.6641 C.ar        1 MOL      -0.0242
     36 CD2       -29.0572   42.4720   33.9515 C.ar        1 MOL      -0.0242
     37 CE1       -27.7818   43.7315   31.7849 C.ar        1 MOL       0.0115
     38 CE2       -28.2421   41.7246   33.0827 C.ar        1 MOL       0.0115
     39 CZ        -27.6296   42.3390   31.9673 C.ar        1 MOL       0.1728
     40 OH        -26.8245   41.6160   31.1259 O.3         1 MOL      -0.2040
     41 P         -27.5754   41.0115   29.8986 P.3         1 MOL       0.1348
     42 O1P       -28.7343   40.2403   30.2753 O.co2       1 MOL      -0.6653
     43 O2P       -26.6698   40.0979   29.2416 O.co2       1 MOL      -0.6653
     44 O3P       -27.9373   42.0085   28.9200 O.co2       1 MOL      -0.6653
     45 N         -28.6486   44.9471   38.1028 N.am        1 MOL      -0.2663
     46 CA        -28.3842   44.2063   39.3090 C.3         1 MOL       0.1112
     47 C         -27.9064   42.8356   39.0219 C.2         1 MOL       0.0626
     48 O         -28.4815   41.7469   39.5900 O.co2       1 MOL      -0.5664
     49 CB        -29.6271   44.3556   40.2451 C.3         1 MOL       0.0720
     50 CG        -29.7157   43.4202   41.3451 C.2         1 MOL       0.1774
     51 OD1       -30.7568   42.8065   41.5616 O.2         1 MOL      -0.3971
     52 ND2       -28.6999   43.1876   42.1469 N.am        1 MOL      -0.3007
     53 OXT       -27.0623   42.6598   37.9884 O.co2       1 MOL      -0.5664
     54 H1        -33.3400   50.5715   33.5610 H           1 MOL       0.0566
     55 H2        -31.0273   51.2493   33.5374 H           1 MOL       0.0448
     56 H3        -30.8423   50.4618   29.3954 H           1 MOL       0.0451
     57 H4        -34.4235   49.8451   31.5206 H           1 MOL       0.0459
     58 H5        -29.0826   52.1580   32.0728 H           1 MOL       0.0774
     59 H6        -28.9736   51.5428   30.4369 H           1 MOL       0.0774
     60 H7        -32.8096   49.6834   28.3208 H           1 MOL       0.1718
     61 H8        -34.2445   49.4236   29.1617 H           1 MOL       0.1718
     62 H9        -27.1563   48.2316   32.4126 H           1 MOL       0.1902
     63 H10       -26.5932   46.9958   34.0248 H           1 MOL       0.0839
     64 H11       -25.0596   48.6849   34.5719 H           1 MOL       0.0584
     65 H12       -25.5865   47.8828   36.0216 H           1 MOL       0.0584
     66 H13       -25.8348   51.0466   34.0959 H           1 MOL       0.0703
     67 H14       -26.6553   49.1666   37.7869 H           1 MOL       0.0703
     68 H15       -26.3400   53.1854   35.0757 H           1 MOL       0.0736
     69 H16       -27.1426   51.3105   38.7629 H           1 MOL       0.0736
     70 H17       -27.6772   45.5699   35.0995 H           1 MOL       0.1842
     71 H18       -31.5472   45.5695   36.8222 H           1 MOL       0.0244
     72 H19       -31.0678   46.9647   35.8392 H           1 MOL       0.0244
     73 H20       -30.3660   46.7278   37.4478 H           1 MOL       0.0244
     74 H21       -30.6506   45.3977   33.9966 H           1 MOL       0.0549
     75 H22       -30.9804   43.9919   34.9646 H           1 MOL       0.0549
     76 H23       -28.6921   45.4811   32.4964 H           1 MOL       0.0703
     77 H24       -29.5242   41.9892   34.7170 H           1 MOL       0.0703
     78 H25       -27.3183   44.1928   30.9985 H           1 MOL       0.0736
     79 H26       -28.1164   40.7224   33.2438 H           1 MOL       0.0736
     80 H27       -28.6649   45.9104   38.2045 H           1 MOL       0.1883
     81 H28       -27.5460   44.7166   39.8040 H           1 MOL       0.0754
     82 H29       -30.5383   44.2931   39.6368 H           1 MOL       0.0544
     83 H30       -29.5929   45.3631   40.6777 H           1 MOL       0.0544
     84 H31       -28.7834   42.5436   42.8683 H           1 MOL       0.1814
     85 H32       -27.8547   43.6377   42.0066 H           1 MOL       0.1814
@<TRIPOS>BOND
     1     1     5  ar
     2     2     1  ar
     3     3     2  ar
     4     6     3   1
     5     3     4  ar
     6     4    11  ar
     7    11    10   1
     8    11     5  ar
     9     7     6   1
    10     8     7   1
    11     8     9   2
    12    13    12   1
    13    13    16   1
    14    14    13   1
    15    14    15   2
    16    16    17   1
    17    17    19  ar
    18    17    18  ar
    19    18    20  ar
    20    20    22  ar
    21    22    23   1
    22    21    22  ar
    23    19    21  ar
    24    23    24   1
    25    24    27  ar
    26    24    26  ar
    27    24    25  ar
    28    29    28   1
    29    29    33   1
    30    31    29   1
    31    29    30   1
    32    31    32   2
    33    33    34   1
    34    34    36  ar
    35    34    35  ar
    36    35    37  ar
    37    37    39  ar
    38    39    40   1
    39    38    39  ar
    40    36    38  ar
    41    40    41   1
    42    41    44  ar
    43    41    43  ar
    44    41    42  ar
    45    46    47   1
    46    46    49   1
    47    45    46   1
    48    49    50   1
    49    50    51   2
    50    50    52  am
    51    47    53  ar
    52    47    48  ar
    53    28    14  am
    54    12     8  am
    55    31    45  am
    56     1    54   1
    57     2    55   1
    58     4    56   1
    59     5    57   1
    60     6    58   1
    61     6    59   1
    62    10    60   1
    63    10    61   1
    64    12    62   1
    65    13    63   1
    66    16    64   1
    67    16    65   1
    68    18    66   1
    69    19    67   1
    70    20    68   1
    71    21    69   1
    72    28    70   1
    73    30    71   1
    74    30    72   1
    75    30    73   1
    76    33    74   1
    77    33    75   1
    78    35    76   1
    79    36    77   1
    80    37    78   1
    81    38    79   1
    82    45    80   1
    83    46    81   1
    84    49    82   1
    85    49    83   1
    86    52    84   1
    87    52    85   1
@<TRIPOS>SUBSTRUCTURE
     1  MOL      1

