@<TRIPOS>MOLECULE
1jyq_ligand_089
    85    87
SMALL
GAST_HUCK
****
This file was generated by PARSER (from files_GN.cpp)

@<TRIPOS>ATOM
      1 C1        -29.5235   44.4815   25.5933 C.ar        1 MOL      -0.0801
      2 C2        -30.1048   44.2127   26.8444 C.ar        1 MOL      -0.0711
      3 C3        -30.2409   45.2315   27.8164 C.ar        1 MOL      -0.0250
      4 C4        -29.8019   46.5394   27.4886 C.ar        1 MOL      -0.0414
      5 C6        -29.0848   45.7812   25.2852 C.ar        1 MOL      -0.0516
      6 C12       -30.8001   44.8779   29.1477 C.3         1 MOL       0.1084
      7 O13       -30.6700   45.9222   30.1202 O.3         1 MOL      -0.2508
      8 C16       -30.8294   45.8156   31.4627 C.2         1 MOL       0.3241
      9 O18       -31.1430   44.6317   32.0403 O.2         1 MOL      -0.3773
     10 N11       -28.8231   48.0632   25.9308 N.pl3       1 MOL      -0.3383
     11 C5        -29.2309   46.8152   26.2298 C.ar        1 MOL       0.0282
     12 N         -30.5404   46.9148   32.1857 N.am        1 MOL      -0.2380
     13 CA        -30.4178   46.9886   33.6125 C.3         1 MOL       0.1484
     14 C         -30.3891   48.3998   33.9969 C.2         1 MOL       0.2046
     15 O         -29.4970   49.1144   33.5544 O.2         1 MOL      -0.3944
     16 CB        -29.1966   46.1899   34.1832 C.3         1 MOL       0.0400
     17 CG        -27.8665   46.5173   33.5861 C.ar        1 MOL      -0.0004
     18 CD1       -27.5007   46.0254   32.3111 C.ar        1 MOL      -0.0239
     19 CD2       -26.9339   47.3204   34.2842 C.ar        1 MOL      -0.0239
     20 CE1       -26.2872   46.4056   31.7090 C.ar        1 MOL       0.0115
     21 CE2       -25.7062   47.6740   33.6971 C.ar        1 MOL       0.0115
     22 CZ        -25.3990   47.2692   32.3818 C.ar        1 MOL       0.1728
     23 OH        -24.1992   47.6183   31.8204 O.3         1 MOL      -0.2040
     24 P         -24.2051   48.9847   31.0705 P.3         1 MOL       0.1348
     25 O1P       -22.8282   49.3179   30.7890 O.co2       1 MOL      -0.6653
     26 O2P       -24.7370   50.0728   31.8499 O.co2       1 MOL      -0.6653
     27 O3P       -24.8932   48.9002   29.8078 O.co2       1 MOL      -0.6653
     28 N         -31.3213   48.8981   34.8073 N.am        1 MOL      -0.2712
     29 CA        -31.4734   50.2576   35.3006 C.3         1 MOL       0.1461
     30 CH3       -31.8762   51.1460   34.0752 C.3         1 MOL      -0.0287
     31 C         -30.2504   50.7284   35.9758 C.2         1 MOL       0.2294
     32 O         -29.5515   49.9045   36.5536 O.2         1 MOL      -0.3416
     33 CB        -32.6514   50.1868   36.3458 C.3         1 MOL       0.0325
     34 CG        -33.0031   51.4410   37.0792 C.ar        1 MOL      -0.0034
     35 CD1       -32.3937   51.7453   38.3207 C.ar        1 MOL      -0.0242
     36 CD2       -34.0000   52.3171   36.5890 C.ar        1 MOL      -0.0242
     37 CE1       -32.7567   52.8990   39.0400 C.ar        1 MOL       0.0115
     38 CE2       -34.3662   53.4692   37.3110 C.ar        1 MOL       0.0115
     39 CZ        -33.7339   53.7801   38.5330 C.ar        1 MOL       0.1728
     40 OH        -34.1610   54.8385   39.2875 O.3         1 MOL      -0.2040
     41 P         -33.3878   56.1665   39.0466 P.3         1 MOL       0.1348
     42 O1P       -31.9799   56.0639   39.3453 O.co2       1 MOL      -0.6653
     43 O2P       -33.9242   57.1417   39.9654 O.co2       1 MOL      -0.6653
     44 O3P       -33.5766   56.6889   37.7180 O.co2       1 MOL      -0.6653
     45 N         -30.0129   52.0257   36.1591 N.am        1 MOL      -0.2663
     46 CA        -29.0030   52.5922   37.0042 C.3         1 MOL       0.1112
     47 C         -29.3669   54.0050   37.2461 C.2         1 MOL       0.0626
     48 O         -29.6141   54.4694   38.4924 O.co2       1 MOL      -0.5664
     49 CB        -27.5379   52.3367   36.5041 C.3         1 MOL       0.0720
     50 CG        -26.7061   53.3625   35.8940 C.2         1 MOL       0.1774
     51 OD1       -27.0882   54.4833   35.5822 O.2         1 MOL      -0.3971
     52 ND2       -25.4599   53.0466   35.6297 N.am        1 MOL      -0.3007
     53 OXT       -29.5550   54.8581   36.2119 O.co2       1 MOL      -0.5664
     54 H1        -29.4196   43.7314   24.9061 H           1 MOL       0.0566
     55 H2        -30.4119   43.2578   27.0512 H           1 MOL       0.0448
     56 H3        -29.8941   47.2993   28.1661 H           1 MOL       0.0451
     57 H4        -28.6666   45.9686   24.3711 H           1 MOL       0.0459
     58 H5        -30.2512   44.0096   29.5200 H           1 MOL       0.0774
     59 H6        -31.8538   44.6068   29.0423 H           1 MOL       0.0774
     60 H7        -28.9248   48.7761   26.5802 H           1 MOL       0.1718
     61 H8        -28.4292   48.2516   25.0649 H           1 MOL       0.1718
     62 H9        -30.3605   47.7282   31.6833 H           1 MOL       0.1902
     63 H10       -31.3183   46.5320   34.0383 H           1 MOL       0.0839
     64 H11       -29.3782   45.1194   34.0531 H           1 MOL       0.0584
     65 H12       -29.1650   46.3509   35.2674 H           1 MOL       0.0584
     66 H13       -28.1179   45.3820   31.8112 H           1 MOL       0.0703
     67 H14       -27.1456   47.6626   35.2252 H           1 MOL       0.0703
     68 H15       -26.0523   46.0540   30.7773 H           1 MOL       0.0736
     69 H16       -25.0394   48.2432   34.2243 H           1 MOL       0.0736
     70 H17       -31.9869   48.2616   35.1166 H           1 MOL       0.1842
     71 H18       -32.1168   52.1647   34.3785 H           1 MOL       0.0244
     72 H19       -32.7525   50.7314   33.5717 H           1 MOL       0.0244
     73 H20       -31.0613   51.1982   33.3510 H           1 MOL       0.0244
     74 H21       -32.4158   49.4176   37.0924 H           1 MOL       0.0549
     75 H22       -33.5505   49.8202   35.8399 H           1 MOL       0.0549
     76 H23       -31.6867   51.1197   38.7181 H           1 MOL       0.0703
     77 H24       -34.4784   52.1116   35.7102 H           1 MOL       0.0703
     78 H25       -32.3137   53.0921   39.9431 H           1 MOL       0.0736
     79 H26       -35.1039   54.0764   36.9510 H           1 MOL       0.0736
     80 H27       -30.6529   52.6451   35.7724 H           1 MOL       0.1883
     81 H28       -29.0982   52.0878   37.9740 H           1 MOL       0.0754
     82 H29       -27.5501   51.5040   35.7901 H           1 MOL       0.0544
     83 H30       -26.9704   51.9666   37.3673 H           1 MOL       0.0544
     84 H31       -24.8620   53.6845   35.2185 H           1 MOL       0.1814
     85 H32       -25.1353   52.1655   35.8537 H           1 MOL       0.1814
@<TRIPOS>BOND
     1     1     5  ar
     2     2     1  ar
     3     3     2  ar
     4     6     3   1
     5     3     4  ar
     6     4    11  ar
     7    11    10   1
     8    11     5  ar
     9     7     6   1
    10     8     7   1
    11     8     9   2
    12    13    12   1
    13    13    16   1
    14    14    13   1
    15    14    15   2
    16    16    17   1
    17    17    19  ar
    18    17    18  ar
    19    18    20  ar
    20    20    22  ar
    21    22    23   1
    22    21    22  ar
    23    19    21  ar
    24    23    24   1
    25    24    27  ar
    26    24    26  ar
    27    24    25  ar
    28    29    28   1
    29    29    33   1
    30    31    29   1
    31    29    30   1
    32    31    32   2
    33    33    34   1
    34    34    36  ar
    35    34    35  ar
    36    35    37  ar
    37    37    39  ar
    38    39    40   1
    39    38    39  ar
    40    36    38  ar
    41    40    41   1
    42    41    44  ar
    43    41    43  ar
    44    41    42  ar
    45    46    47   1
    46    46    49   1
    47    45    46   1
    48    49    50   1
    49    50    51   2
    50    50    52  am
    51    47    53  ar
    52    47    48  ar
    53    28    14  am
    54    12     8  am
    55    31    45  am
    56     1    54   1
    57     2    55   1
    58     4    56   1
    59     5    57   1
    60     6    58   1
    61     6    59   1
    62    10    60   1
    63    10    61   1
    64    12    62   1
    65    13    63   1
    66    16    64   1
    67    16    65   1
    68    18    66   1
    69    19    67   1
    70    20    68   1
    71    21    69   1
    72    28    70   1
    73    30    71   1
    74    30    72   1
    75    30    73   1
    76    33    74   1
    77    33    75   1
    78    35    76   1
    79    36    77   1
    80    37    78   1
    81    38    79   1
    82    45    80   1
    83    46    81   1
    84    49    82   1
    85    49    83   1
    86    52    84   1
    87    52    85   1
@<TRIPOS>SUBSTRUCTURE
     1  MOL      1

