@<TRIPOS>MOLECULE
1jyq_ligand_090
    85    87
SMALL
GAST_HUCK
****
This file was generated by PARSER (from files_GN.cpp)

@<TRIPOS>ATOM
      1 C1        -28.2989   41.0492   33.1730 C.ar        1 MOL      -0.0801
      2 C2        -28.6006   41.9964   34.1677 C.ar        1 MOL      -0.0711
      3 C3        -29.9390   42.2144   34.5758 C.ar        1 MOL      -0.0250
      4 C4        -30.9655   41.4632   33.9607 C.ar        1 MOL      -0.0414
      5 C6        -29.3274   40.2929   32.5838 C.ar        1 MOL      -0.0516
      6 C12       -30.2673   43.2226   35.6163 C.3         1 MOL       0.1084
      7 O13       -30.7746   44.4351   35.0512 O.3         1 MOL      -0.2508
      8 C16       -30.0908   45.3090   34.2655 C.2         1 MOL       0.3241
      9 O18       -28.7992   45.0712   33.9281 O.2         1 MOL      -0.3773
     10 N11       -31.6495   39.7742   32.4148 N.pl3       1 MOL      -0.3383
     11 C5        -30.6658   40.4975   32.9770 C.ar        1 MOL       0.0282
     12 N         -30.7393   46.4281   33.8737 N.am        1 MOL      -0.2380
     13 CA        -30.1702   47.5083   33.1110 C.3         1 MOL       0.1484
     14 C         -29.7103   48.5987   33.9708 C.2         1 MOL       0.2046
     15 O         -29.2002   49.5616   33.4151 O.2         1 MOL      -0.3944
     16 CB        -31.1889   47.9779   32.0189 C.3         1 MOL       0.0400
     17 CG        -30.5511   48.2641   30.7020 C.ar        1 MOL      -0.0004
     18 CD1       -30.5437   47.2771   29.6887 C.ar        1 MOL      -0.0239
     19 CD2       -29.9633   49.5193   30.4320 C.ar        1 MOL      -0.0239
     20 CE1       -29.9821   47.5444   28.4288 C.ar        1 MOL       0.0115
     21 CE2       -29.3812   49.7808   29.1745 C.ar        1 MOL       0.0115
     22 CZ        -29.3812   48.7914   28.1691 C.ar        1 MOL       0.1728
     23 OH        -28.8962   49.0755   26.9238 O.3         1 MOL      -0.2040
     24 P         -27.4560   48.5375   26.6842 P.3         1 MOL       0.1348
     25 O1P       -27.3287   47.1377   27.0033 O.co2       1 MOL      -0.6653
     26 O2P       -26.4222   49.3089   27.3387 O.co2       1 MOL      -0.6653
     27 O3P       -27.2001   48.6536   25.2671 O.co2       1 MOL      -0.6653
     28 N         -29.7858   48.5472   35.3071 N.am        1 MOL      -0.2712
     29 CA        -29.2479   49.4606   36.3056 C.3         1 MOL       0.1461
     30 CH3       -29.9434   49.0163   37.6417 C.3         1 MOL      -0.0287
     31 C         -29.6264   50.8729   36.0842 C.2         1 MOL       0.2294
     32 O         -30.3079   51.1813   35.1125 O.2         1 MOL      -0.3416
     33 CB        -27.6845   49.2504   36.4746 C.3         1 MOL       0.0325
     34 CG        -26.9033   48.9398   35.2401 C.ar        1 MOL      -0.0034
     35 CD1       -26.3068   49.9654   34.4693 C.ar        1 MOL      -0.0242
     36 CD2       -26.8062   47.6022   34.7785 C.ar        1 MOL      -0.0242
     37 CE1       -25.6659   49.6645   33.2522 C.ar        1 MOL       0.0115
     38 CE2       -26.1757   47.3045   33.5620 C.ar        1 MOL       0.0115
     39 CZ        -25.6355   48.3389   32.7705 C.ar        1 MOL       0.1728
     40 OH        -25.0649   48.0203   31.5705 O.3         1 MOL      -0.2040
     41 P         -26.0132   48.2965   30.3579 P.3         1 MOL       0.1348
     42 O1P       -26.1051   49.7063   30.0738 O.co2       1 MOL      -0.6653
     43 O2P       -27.3365   47.7390   30.4844 O.co2       1 MOL      -0.6653
     44 O3P       -25.4099   47.6881   29.1966 O.co2       1 MOL      -0.6653
     45 N         -29.3682   51.7956   37.0096 N.am        1 MOL      -0.2663
     46 CA        -29.7979   53.1693   37.0445 C.3         1 MOL       0.1112
     47 C         -28.6105   54.0507   36.9448 C.2         1 MOL       0.0626
     48 O         -27.6594   54.0501   37.9052 O.co2       1 MOL      -0.5664
     49 CB        -30.6589   53.4474   38.3177 C.3         1 MOL       0.0720
     50 CG        -29.9456   53.4278   39.5827 C.2         1 MOL       0.1774
     51 OD1       -29.5043   52.3810   40.0331 O.2         1 MOL      -0.3971
     52 ND2       -29.7462   54.5263   40.2785 N.am        1 MOL      -0.3007
     53 OXT       -28.4085   54.8285   35.8581 O.co2       1 MOL      -0.5664
     54 H1        -27.3295   40.9068   32.8789 H           1 MOL       0.0566
     55 H2        -27.8384   42.5373   34.5813 H           1 MOL       0.0448
     56 H3        -31.9420   41.6157   34.2364 H           1 MOL       0.0451
     57 H4        -29.0988   39.6004   31.8690 H           1 MOL       0.0459
     58 H5        -29.3979   43.4630   36.2312 H           1 MOL       0.0774
     59 H6        -31.0325   42.8178   36.2820 H           1 MOL       0.0774
     60 H7        -32.5736   39.9176   32.6793 H           1 MOL       0.1718
     61 H8        -31.4405   39.1113   31.7380 H           1 MOL       0.1718
     62 H9        -31.6540   46.5388   34.1836 H           1 MOL       0.1902
     63 H10       -29.2735   47.1251   32.6035 H           1 MOL       0.0839
     64 H11       -31.7434   48.8592   32.3564 H           1 MOL       0.0584
     65 H12       -31.9450   47.2039   31.8634 H           1 MOL       0.0584
     66 H13       -30.9685   46.3572   29.8527 H           1 MOL       0.0703
     67 H14       -29.9796   50.2597   31.1332 H           1 MOL       0.0703
     68 H15       -30.0133   46.8273   27.7043 H           1 MOL       0.0736
     69 H16       -28.9709   50.6994   28.9883 H           1 MOL       0.0736
     70 H17       -30.2461   47.7709   35.6588 H           1 MOL       0.1842
     71 H18       -29.5671   49.5867   38.4973 H           1 MOL       0.0244
     72 H19       -29.7677   47.9569   37.8556 H           1 MOL       0.0244
     73 H20       -31.0254   49.1626   37.5842 H           1 MOL       0.0244
     74 H21       -27.5047   48.4235   37.1757 H           1 MOL       0.0549
     75 H22       -27.2263   50.1113   36.9654 H           1 MOL       0.0549
     76 H23       -26.3693   50.9438   34.7646 H           1 MOL       0.0703
     77 H24       -27.2393   46.8426   35.3074 H           1 MOL       0.0703
     78 H25       -25.2425   50.4116   32.6946 H           1 MOL       0.0736
     79 H26       -26.1446   46.3392   33.2246 H           1 MOL       0.0736
     80 H27       -28.8639   51.4986   37.7824 H           1 MOL       0.1883
     81 H28       -30.4414   53.3926   36.1906 H           1 MOL       0.0754
     82 H29       -31.4571   52.7045   38.3617 H           1 MOL       0.0544
     83 H30       -31.1491   54.4157   38.1885 H           1 MOL       0.0544
     84 H31       -29.2383   54.4959   41.1034 H           1 MOL       0.1814
     85 H32       -30.0868   55.3768   39.9590 H           1 MOL       0.1814
@<TRIPOS>BOND
     1     1     5  ar
     2     2     1  ar
     3     3     2  ar
     4     6     3   1
     5     3     4  ar
     6     4    11  ar
     7    11    10   1
     8    11     5  ar
     9     7     6   1
    10     8     7   1
    11     8     9   2
    12    13    12   1
    13    13    16   1
    14    14    13   1
    15    14    15   2
    16    16    17   1
    17    17    19  ar
    18    17    18  ar
    19    18    20  ar
    20    20    22  ar
    21    22    23   1
    22    21    22  ar
    23    19    21  ar
    24    23    24   1
    25    24    27  ar
    26    24    26  ar
    27    24    25  ar
    28    29    28   1
    29    29    33   1
    30    31    29   1
    31    29    30   1
    32    31    32   2
    33    33    34   1
    34    34    36  ar
    35    34    35  ar
    36    35    37  ar
    37    37    39  ar
    38    39    40   1
    39    38    39  ar
    40    36    38  ar
    41    40    41   1
    42    41    44  ar
    43    41    43  ar
    44    41    42  ar
    45    46    47   1
    46    46    49   1
    47    45    46   1
    48    49    50   1
    49    50    51   2
    50    50    52  am
    51    47    53  ar
    52    47    48  ar
    53    28    14  am
    54    12     8  am
    55    31    45  am
    56     1    54   1
    57     2    55   1
    58     4    56   1
    59     5    57   1
    60     6    58   1
    61     6    59   1
    62    10    60   1
    63    10    61   1
    64    12    62   1
    65    13    63   1
    66    16    64   1
    67    16    65   1
    68    18    66   1
    69    19    67   1
    70    20    68   1
    71    21    69   1
    72    28    70   1
    73    30    71   1
    74    30    72   1
    75    30    73   1
    76    33    74   1
    77    33    75   1
    78    35    76   1
    79    36    77   1
    80    37    78   1
    81    38    79   1
    82    45    80   1
    83    46    81   1
    84    49    82   1
    85    49    83   1
    86    52    84   1
    87    52    85   1
@<TRIPOS>SUBSTRUCTURE
     1  MOL      1

