@<TRIPOS>MOLECULE
1jyq_ligand_016
    85    87
SMALL
GAST_HUCK
****
This file was generated by PARSER (from files_GN.cpp)

@<TRIPOS>ATOM
      1 C1        -26.9214   37.0383   34.6060 C.ar        1 MOL      -0.0801
      2 C2        -27.9517   37.9459   34.9042 C.ar        1 MOL      -0.0711
      3 C3        -28.3505   38.9159   33.9557 C.ar        1 MOL      -0.0250
      4 C4        -27.6841   38.9614   32.7066 C.ar        1 MOL      -0.0414
      5 C6        -26.2600   37.0960   33.3647 C.ar        1 MOL      -0.0516
      6 C12       -29.4408   39.8802   34.2544 C.3         1 MOL       0.1084
      7 O13       -29.3275   41.0912   33.4877 O.3         1 MOL      -0.2508
      8 C16       -28.5051   42.1506   33.7194 C.2         1 MOL       0.3241
      9 O18       -27.6548   42.1469   34.7749 O.2         1 MOL      -0.3773
     10 N11       -25.9946   38.1258   31.2339 N.pl3       1 MOL      -0.3383
     11 C5        -26.6385   38.0634   32.4154 C.ar        1 MOL       0.0282
     12 N         -28.5157   43.1528   32.8149 N.am        1 MOL      -0.2380
     13 CA        -27.5989   44.2628   32.7519 C.3         1 MOL       0.1484
     14 C         -28.2211   45.5100   33.1996 C.2         1 MOL       0.2046
     15 O         -29.3849   45.7452   32.8964 O.2         1 MOL      -0.3944
     16 CB        -27.0032   44.3618   31.3108 C.3         1 MOL       0.0400
     17 CG        -27.8896   45.0323   30.3150 C.ar        1 MOL      -0.0004
     18 CD1       -27.6726   46.3775   29.9399 C.ar        1 MOL      -0.0239
     19 CD2       -28.9848   44.3436   29.7397 C.ar        1 MOL      -0.0239
     20 CE1       -28.5390   47.0270   29.0447 C.ar        1 MOL       0.0115
     21 CE2       -29.8550   44.9912   28.8449 C.ar        1 MOL       0.0115
     22 CZ        -29.6571   46.3501   28.5182 C.ar        1 MOL       0.1728
     23 OH        -30.4831   46.9727   27.6186 O.3         1 MOL      -0.2040
     24 P         -31.6912   47.7062   28.2748 P.3         1 MOL       0.1348
     25 O1P       -31.2752   48.7565   29.1686 O.co2       1 MOL      -0.6653
     26 O2P       -32.5816   46.8033   28.9598 O.co2       1 MOL      -0.6653
     27 O3P       -32.4453   48.3312   27.2224 O.co2       1 MOL      -0.6653
     28 N         -27.5089   46.3673   33.9285 N.am        1 MOL      -0.2712
     29 CA        -27.8814   47.6594   34.4962 C.3         1 MOL       0.1461
     30 CH3       -28.8204   47.4153   35.7290 C.3         1 MOL      -0.0287
     31 C         -28.5691   48.5126   33.4969 C.2         1 MOL       0.2294
     32 O         -28.8042   48.1157   32.3631 O.2         1 MOL      -0.3416
     33 CB        -26.5045   48.2914   34.9569 C.3         1 MOL       0.0325
     34 CG        -26.5197   49.6116   35.6532 C.ar        1 MOL      -0.0034
     35 CD1       -26.6931   49.6886   37.0559 C.ar        1 MOL      -0.0242
     36 CD2       -26.3368   50.8173   34.9376 C.ar        1 MOL      -0.0242
     37 CE1       -26.7879   50.9336   37.7044 C.ar        1 MOL       0.0115
     38 CE2       -26.4403   52.0629   35.5798 C.ar        1 MOL       0.0115
     39 CZ        -26.7250   52.1290   36.9571 C.ar        1 MOL       0.1728
     40 OH        -26.8651   53.3558   37.5528 O.3         1 MOL      -0.2040
     41 P         -28.2701   54.0025   37.3392 P.3         1 MOL       0.1348
     42 O1P       -28.9064   53.6174   36.1035 O.co2       1 MOL      -0.6653
     43 O2P       -28.0987   55.4363   37.2750 O.co2       1 MOL      -0.6653
     44 O3P       -29.1661   53.7389   38.4412 O.co2       1 MOL      -0.6653
     45 N         -28.9660   49.7431   33.8080 N.am        1 MOL      -0.2663
     46 CA        -29.6043   50.7476   32.9972 C.3         1 MOL       0.1112
     47 C         -31.0682   50.6429   33.1881 C.2         1 MOL       0.0626
     48 O         -31.8697   51.7264   33.0784 O.co2       1 MOL      -0.5664
     49 CB        -29.2368   50.8783   31.4773 C.3         1 MOL       0.0720
     50 CG        -27.9471   50.3476   31.0591 C.2         1 MOL       0.1774
     51 OD1       -27.0444   50.1188   31.8531 O.2         1 MOL      -0.3971
     52 ND2       -27.6979   50.0773   29.7914 N.am        1 MOL      -0.3007
     53 OXT       -31.6393   49.4556   33.4965 O.co2       1 MOL      -0.5664
     54 H1        -26.6496   36.3329   35.2959 H           1 MOL       0.0566
     55 H2        -28.4148   37.8913   35.8143 H           1 MOL       0.0448
     56 H3        -27.9589   39.6583   32.0069 H           1 MOL       0.0451
     57 H4        -25.5139   36.4322   33.1608 H           1 MOL       0.0459
     58 H5        -29.4778   40.1397   35.3173 H           1 MOL       0.0774
     59 H6        -30.3969   39.4185   33.9975 H           1 MOL       0.0774
     60 H7        -26.2495   38.7921   30.5750 H           1 MOL       0.1718
     61 H8        -25.2738   37.5043   31.0359 H           1 MOL       0.1718
     62 H9        -29.1666   43.0859   32.0985 H           1 MOL       0.1902
     63 H10       -26.7548   44.0739   33.4224 H           1 MOL       0.0839
     64 H11       -26.7929   43.3451   30.9649 H           1 MOL       0.0584
     65 H12       -26.0336   44.8670   31.3469 H           1 MOL       0.0584
     66 H13       -26.8745   46.8926   30.3172 H           1 MOL       0.0703
     67 H14       -29.1610   43.3586   29.9728 H           1 MOL       0.0703
     68 H15       -28.3653   48.0002   28.7859 H           1 MOL       0.0736
     69 H16       -30.6401   44.4767   28.4390 H           1 MOL       0.0736
     70 H17       -26.6012   46.0764   34.1191 H           1 MOL       0.1842
     71 H18       -29.1122   48.3567   36.1980 H           1 MOL       0.0244
     72 H19       -28.3074   46.8008   36.4782 H           1 MOL       0.0244
     73 H20       -29.7404   46.8980   35.4420 H           1 MOL       0.0244
     74 H21       -25.8571   48.3672   34.0780 H           1 MOL       0.0549
     75 H22       -26.0039   47.5838   35.6250 H           1 MOL       0.0549
     76 H23       -26.7603   48.8336   37.6201 H           1 MOL       0.0703
     77 H24       -26.1444   50.7959   33.9374 H           1 MOL       0.0703
     78 H25       -26.9400   50.9681   38.7151 H           1 MOL       0.0736
     79 H26       -26.3392   52.9189   35.0329 H           1 MOL       0.0736
     80 H27       -28.8347   50.0160   34.7291 H           1 MOL       0.1883
     81 H28       -29.2964   51.6944   33.4494 H           1 MOL       0.0754
     82 H29       -29.2301   51.9486   31.2043 H           1 MOL       0.0544
     83 H30       -30.0193   50.4208   30.8544 H           1 MOL       0.0544
     84 H31       -26.8433   49.6795   29.5256 H           1 MOL       0.1814
     85 H32       -28.3734   50.2577   29.1119 H           1 MOL       0.1814
@<TRIPOS>BOND
     1     1     5  ar
     2     2     1  ar
     3     3     2  ar
     4     6     3   1
     5     3     4  ar
     6     4    11  ar
     7    11    10   1
     8    11     5  ar
     9     7     6   1
    10     8     7   1
    11     8     9   2
    12    13    12   1
    13    13    16   1
    14    14    13   1
    15    14    15   2
    16    16    17   1
    17    17    19  ar
    18    17    18  ar
    19    18    20  ar
    20    20    22  ar
    21    22    23   1
    22    21    22  ar
    23    19    21  ar
    24    23    24   1
    25    24    27  ar
    26    24    26  ar
    27    24    25  ar
    28    29    28   1
    29    29    33   1
    30    31    29   1
    31    29    30   1
    32    31    32   2
    33    33    34   1
    34    34    36  ar
    35    34    35  ar
    36    35    37  ar
    37    37    39  ar
    38    39    40   1
    39    38    39  ar
    40    36    38  ar
    41    40    41   1
    42    41    44  ar
    43    41    43  ar
    44    41    42  ar
    45    46    47   1
    46    46    49   1
    47    45    46   1
    48    49    50   1
    49    50    51   2
    50    50    52  am
    51    47    53  ar
    52    47    48  ar
    53    28    14  am
    54    12     8  am
    55    31    45  am
    56     1    54   1
    57     2    55   1
    58     4    56   1
    59     5    57   1
    60     6    58   1
    61     6    59   1
    62    10    60   1
    63    10    61   1
    64    12    62   1
    65    13    63   1
    66    16    64   1
    67    16    65   1
    68    18    66   1
    69    19    67   1
    70    20    68   1
    71    21    69   1
    72    28    70   1
    73    30    71   1
    74    30    72   1
    75    30    73   1
    76    33    74   1
    77    33    75   1
    78    35    76   1
    79    36    77   1
    80    37    78   1
    81    38    79   1
    82    45    80   1
    83    46    81   1
    84    49    82   1
    85    49    83   1
    86    52    84   1
    87    52    85   1
@<TRIPOS>SUBSTRUCTURE
     1  MOL      1

