@<TRIPOS>MOLECULE
1jyq_ligand_068
    85    87
SMALL
GAST_HUCK
****
This file was generated by PARSER (from files_GN.cpp)

@<TRIPOS>ATOM
      1 C1        -24.0320   42.6048   33.4153 C.ar        1 MOL      -0.0801
      2 C2        -24.9892   43.4800   32.8654 C.ar        1 MOL      -0.0711
      3 C3        -26.1632   42.9762   32.2575 C.ar        1 MOL      -0.0250
      4 C4        -26.3610   41.5761   32.2265 C.ar        1 MOL      -0.0414
      5 C6        -24.2372   41.2158   33.3673 C.ar        1 MOL      -0.0516
      6 C12       -27.1438   43.9018   31.6344 C.3         1 MOL       0.1084
      7 O13       -28.1416   44.3446   32.5630 O.3         1 MOL      -0.2508
      8 C16       -28.1126   45.4367   33.3801 C.2         1 MOL       0.3241
      9 O18       -27.0173   46.2335   33.4071 O.2         1 MOL      -0.3773
     10 N11       -25.5953   39.3655   32.7257 N.pl3       1 MOL      -0.3383
     11 C5        -25.4043   40.6937   32.7746 C.ar        1 MOL       0.0282
     12 N         -29.2265   45.7034   34.0925 N.am        1 MOL      -0.2380
     13 CA        -29.4889   46.8017   34.9862 C.3         1 MOL       0.1484
     14 C         -29.4808   48.0979   34.3050 C.2         1 MOL       0.2046
     15 O         -30.5522   48.6340   34.0497 O.2         1 MOL      -0.3944
     16 CB        -28.6104   46.7569   36.2842 C.3         1 MOL       0.0400
     17 CG        -29.0535   45.7141   37.2574 C.ar        1 MOL      -0.0004
     18 CD1       -28.3097   44.5284   37.4740 C.ar        1 MOL      -0.0239
     19 CD2       -30.2239   45.9255   38.0265 C.ar        1 MOL      -0.0239
     20 CE1       -28.7145   43.5957   38.4495 C.ar        1 MOL       0.0115
     21 CE2       -30.6323   44.9879   38.9922 C.ar        1 MOL       0.0115
     22 CZ        -29.8882   43.8111   39.2050 C.ar        1 MOL       0.1728
     23 OH        -30.2599   42.9726   40.2219 O.3         1 MOL      -0.2040
     24 P         -30.9780   41.6621   39.7772 P.3         1 MOL       0.1348
     25 O1P       -31.5241   41.0387   40.9539 O.co2       1 MOL      -0.6653
     26 O2P       -30.0336   40.7301   39.2129 O.co2       1 MOL      -0.6653
     27 O3P       -32.0724   41.8665   38.8535 O.co2       1 MOL      -0.6653
     28 N         -28.3318   48.6951   33.9963 N.am        1 MOL      -0.2712
     29 CA        -27.9932   49.9291   33.3137 C.3         1 MOL       0.1461
     30 CH3       -26.9722   49.4768   32.2068 C.3         1 MOL      -0.0287
     31 C         -27.3326   50.7428   34.3541 C.2         1 MOL       0.2294
     32 O         -26.1543   51.0664   34.2529 O.2         1 MOL      -0.3416
     33 CB        -29.1361   50.8114   32.6530 C.3         1 MOL       0.0325
     34 CG        -29.6082   50.5183   31.2589 C.ar        1 MOL      -0.0034
     35 CD1       -29.5693   51.5268   30.2590 C.ar        1 MOL      -0.0242
     36 CD2       -30.1155   49.2484   30.8905 C.ar        1 MOL      -0.0242
     37 CE1       -30.0046   51.2715   28.9459 C.ar        1 MOL       0.0115
     38 CE2       -30.5289   48.9830   29.5695 C.ar        1 MOL       0.0115
     39 CZ        -30.5010   50.0014   28.5964 C.ar        1 MOL       0.1728
     40 OH        -30.8539   49.7585   27.2985 O.3         1 MOL      -0.2040
     41 P         -32.3746   49.8765   27.0214 P.3         1 MOL       0.1348
     42 O1P       -32.5270   49.9666   25.5871 O.co2       1 MOL      -0.6653
     43 O2P       -32.9988   51.0559   27.5827 O.co2       1 MOL      -0.6653
     44 O3P       -33.1000   48.6880   27.4168 O.co2       1 MOL      -0.6653
     45 N         -28.0512   51.2546   35.3526 N.am        1 MOL      -0.2663
     46 CA        -27.6691   52.2825   36.2983 C.3         1 MOL       0.1112
     47 C         -27.3901   53.5922   35.6577 C.2         1 MOL       0.0626
     48 O         -27.1931   54.6902   36.4266 O.co2       1 MOL      -0.5664
     49 CB        -26.4975   51.8682   37.2407 C.3         1 MOL       0.0720
     50 CG        -26.8173   50.7373   38.0910 C.2         1 MOL       0.1774
     51 OD1       -26.2589   49.6624   37.9294 O.2         1 MOL      -0.3971
     52 ND2       -27.7089   50.8407   39.0538 N.am        1 MOL      -0.3007
     53 OXT       -27.4068   53.7593   34.3151 O.co2       1 MOL      -0.5664
     54 H1        -23.1833   42.9802   33.8455 H           1 MOL       0.0566
     55 H2        -24.8171   44.4856   32.8988 H           1 MOL       0.0448
     56 H3        -27.2024   41.1888   31.7889 H           1 MOL       0.0451
     57 H4        -23.5330   40.5873   33.7620 H           1 MOL       0.0459
     58 H5        -27.6652   43.3937   30.8212 H           1 MOL       0.0774
     59 H6        -26.6343   44.7568   31.1822 H           1 MOL       0.0774
     60 H7        -26.3940   39.0018   32.3116 H           1 MOL       0.1718
     61 H8        -24.9301   38.7637   33.0953 H           1 MOL       0.1718
     62 H9        -29.9609   45.0771   33.9704 H           1 MOL       0.1902
     63 H10       -30.5192   46.6262   35.3086 H           1 MOL       0.0839
     64 H11       -28.6472   47.7271   36.7944 H           1 MOL       0.0584
     65 H12       -27.5642   46.5967   36.0114 H           1 MOL       0.0584
     66 H13       -27.4606   44.3442   36.9344 H           1 MOL       0.0703
     67 H14       -30.7709   46.7809   37.9066 H           1 MOL       0.0703
     68 H15       -28.1472   42.7626   38.6157 H           1 MOL       0.0736
     69 H16       -31.4630   45.1745   39.5562 H           1 MOL       0.0736
     70 H17       -27.5527   48.2185   34.3230 H           1 MOL       0.1842
     71 H18       -26.6436   50.3278   31.6045 H           1 MOL       0.0244
     72 H19       -27.4200   48.7358   31.5442 H           1 MOL       0.0244
     73 H20       -26.0834   49.0217   32.6532 H           1 MOL       0.0244
     74 H21       -28.7911   51.8538   32.6518 H           1 MOL       0.0549
     75 H22       -30.0146   50.8330   33.2938 H           1 MOL       0.0549
     76 H23       -29.2148   52.4627   30.4747 H           1 MOL       0.0703
     77 H24       -30.1573   48.4892   31.5739 H           1 MOL       0.0703
     78 H25       -29.9549   52.0140   28.2426 H           1 MOL       0.0736
     79 H26       -30.8492   48.0394   29.3199 H           1 MOL       0.0736
     80 H27       -28.9710   50.9501   35.4108 H           1 MOL       0.1883
     81 H28       -28.5446   52.4529   36.9304 H           1 MOL       0.0754
     82 H29       -26.2395   52.7057   37.8988 H           1 MOL       0.0544
     83 H30       -25.6096   51.6530   36.6346 H           1 MOL       0.0544
     84 H31       -27.9041   50.0775   39.6195 H           1 MOL       0.1814
     85 H32       -28.1560   51.6868   39.2225 H           1 MOL       0.1814
@<TRIPOS>BOND
     1     1     5  ar
     2     2     1  ar
     3     3     2  ar
     4     6     3   1
     5     3     4  ar
     6     4    11  ar
     7    11    10   1
     8    11     5  ar
     9     7     6   1
    10     8     7   1
    11     8     9   2
    12    13    12   1
    13    13    16   1
    14    14    13   1
    15    14    15   2
    16    16    17   1
    17    17    19  ar
    18    17    18  ar
    19    18    20  ar
    20    20    22  ar
    21    22    23   1
    22    21    22  ar
    23    19    21  ar
    24    23    24   1
    25    24    27  ar
    26    24    26  ar
    27    24    25  ar
    28    29    28   1
    29    29    33   1
    30    31    29   1
    31    29    30   1
    32    31    32   2
    33    33    34   1
    34    34    36  ar
    35    34    35  ar
    36    35    37  ar
    37    37    39  ar
    38    39    40   1
    39    38    39  ar
    40    36    38  ar
    41    40    41   1
    42    41    44  ar
    43    41    43  ar
    44    41    42  ar
    45    46    47   1
    46    46    49   1
    47    45    46   1
    48    49    50   1
    49    50    51   2
    50    50    52  am
    51    47    53  ar
    52    47    48  ar
    53    28    14  am
    54    12     8  am
    55    31    45  am
    56     1    54   1
    57     2    55   1
    58     4    56   1
    59     5    57   1
    60     6    58   1
    61     6    59   1
    62    10    60   1
    63    10    61   1
    64    12    62   1
    65    13    63   1
    66    16    64   1
    67    16    65   1
    68    18    66   1
    69    19    67   1
    70    20    68   1
    71    21    69   1
    72    28    70   1
    73    30    71   1
    74    30    72   1
    75    30    73   1
    76    33    74   1
    77    33    75   1
    78    35    76   1
    79    36    77   1
    80    37    78   1
    81    38    79   1
    82    45    80   1
    83    46    81   1
    84    49    82   1
    85    49    83   1
    86    52    84   1
    87    52    85   1
@<TRIPOS>SUBSTRUCTURE
     1  MOL      1

