@<TRIPOS>MOLECULE
1jyq_ligand_051
    85    87
SMALL
GAST_HUCK
****
This file was generated by PARSER (from files_GN.cpp)

@<TRIPOS>ATOM
      1 C1        -30.8846   41.4466   39.5787 C.ar        1 MOL      -0.0801
      2 C2        -29.9450   42.3575   39.0644 C.ar        1 MOL      -0.0711
      3 C3        -28.5980   42.3373   39.5007 C.ar        1 MOL      -0.0250
      4 C4        -28.2102   41.3481   40.4356 C.ar        1 MOL      -0.0414
      5 C6        -30.4868   40.4758   40.5146 C.ar        1 MOL      -0.0516
      6 C12       -27.5953   43.2823   38.9407 C.3         1 MOL       0.1084
      7 O13       -28.2238   44.4678   38.4427 O.3         1 MOL      -0.2508
      8 C16       -28.8237   44.6458   37.2370 C.2         1 MOL       0.3241
      9 O18       -28.9013   43.6475   36.3224 O.2         1 MOL      -0.3773
     10 N11       -28.7487   39.4568   41.7917 N.pl3       1 MOL      -0.3383
     11 C5        -29.1435   40.4138   40.9346 C.ar        1 MOL       0.0282
     12 N         -29.5049   45.8034   37.0987 N.am        1 MOL      -0.2380
     13 CA        -30.5072   46.1015   36.1141 C.3         1 MOL       0.1484
     14 C         -31.1121   47.3671   36.5311 C.2         1 MOL       0.2046
     15 O         -32.0566   47.3174   37.3005 O.2         1 MOL      -0.3944
     16 CB        -31.5441   44.9302   35.9638 C.3         1 MOL       0.0400
     17 CG        -32.8033   45.2769   35.2377 C.ar        1 MOL      -0.0004
     18 CD1       -34.0382   45.3612   35.9265 C.ar        1 MOL      -0.0239
     19 CD2       -32.7901   45.5341   33.8472 C.ar        1 MOL      -0.0239
     20 CE1       -35.2180   45.7247   35.2522 C.ar        1 MOL       0.0115
     21 CE2       -33.9722   45.8874   33.1692 C.ar        1 MOL       0.0115
     22 CZ        -35.1885   46.0160   33.8720 C.ar        1 MOL       0.1728
     23 OH        -36.3396   46.3358   33.1988 O.3         1 MOL      -0.2040
     24 P         -36.6529   47.8640   33.1506 P.3         1 MOL       0.1348
     25 O1P       -37.8470   48.0498   32.3651 O.co2       1 MOL      -0.6653
     26 O2P       -35.6075   48.6246   32.5119 O.co2       1 MOL      -0.6653
     27 O3P       -36.9202   48.4058   34.4599 O.co2       1 MOL      -0.6653
     28 N         -30.5779   48.5093   36.1259 N.am        1 MOL      -0.2712
     29 CA        -30.9379   49.9016   36.3232 C.3         1 MOL       0.1461
     30 CH3       -31.0737   50.4142   34.8463 C.3         1 MOL      -0.0287
     31 C         -29.8008   50.6048   36.9482 C.2         1 MOL       0.2294
     32 O         -28.9123   49.9784   37.5112 O.2         1 MOL      -0.3416
     33 CB        -32.2897   50.2322   37.0915 C.3         1 MOL       0.0325
     34 CG        -32.5156   49.7535   38.4978 C.ar        1 MOL      -0.0034
     35 CD1       -33.7394   49.1255   38.8490 C.ar        1 MOL      -0.0242
     36 CD2       -31.5627   49.9447   39.5271 C.ar        1 MOL      -0.0242
     37 CE1       -33.9551   48.6085   40.1389 C.ar        1 MOL       0.0115
     38 CE2       -31.7726   49.4260   40.8187 C.ar        1 MOL       0.0115
     39 CZ        -32.9494   48.7091   41.1203 C.ar        1 MOL       0.1728
     40 OH        -33.1553   48.2090   42.3770 O.3         1 MOL      -0.2040
     41 P         -32.4519   46.8390   42.6281 P.3         1 MOL       0.1348
     42 O1P       -31.0832   46.8403   42.1768 O.co2       1 MOL      -0.6653
     43 O2P       -33.1595   45.7407   42.0237 O.co2       1 MOL      -0.6653
     44 O3P       -32.4307   46.6023   44.0486 O.co2       1 MOL      -0.6653
     45 N         -29.7799   51.9387   36.9822 N.am        1 MOL      -0.2663
     46 CA        -28.8936   52.7824   37.7349 C.3         1 MOL       0.1112
     47 C         -29.4753   54.1474   37.7960 C.2         1 MOL       0.0626
     48 O         -30.7825   54.3081   38.1062 O.co2       1 MOL      -0.5664
     49 CB        -27.4194   52.7519   37.2165 C.3         1 MOL       0.0720
     50 CG        -27.1769   53.5794   36.0480 C.2         1 MOL       0.1774
     51 OD1       -26.8850   54.7581   36.1934 O.2         1 MOL      -0.3971
     52 ND2       -27.2942   53.1253   34.8214 N.am        1 MOL      -0.3007
     53 OXT       -28.6978   55.2568   37.8151 O.co2       1 MOL      -0.5664
     54 H1        -31.8565   41.4855   39.2616 H           1 MOL       0.0566
     55 H2        -30.2540   43.0391   38.3688 H           1 MOL       0.0448
     56 H3        -27.2378   41.3028   40.7538 H           1 MOL       0.0451
     57 H4        -31.1769   39.8074   40.8692 H           1 MOL       0.0459
     58 H5        -27.0302   42.7677   38.1610 H           1 MOL       0.0774
     59 H6        -26.8939   43.6080   39.7105 H           1 MOL       0.0774
     60 H7        -27.8112   39.3787   42.0210 H           1 MOL       0.1718
     61 H8        -29.3871   38.8090   42.1269 H           1 MOL       0.1718
     62 H9        -29.3361   46.4721   37.7812 H           1 MOL       0.1902
     63 H10       -30.0054   46.2347   35.1487 H           1 MOL       0.0839
     64 H11       -31.7888   44.5682   36.9687 H           1 MOL       0.0584
     65 H12       -31.0749   44.0900   35.4416 H           1 MOL       0.0584
     66 H13       -34.0889   45.1748   36.9321 H           1 MOL       0.0703
     67 H14       -31.9181   45.4623   33.3216 H           1 MOL       0.0703
     68 H15       -36.1004   45.7889   35.7677 H           1 MOL       0.0736
     69 H16       -33.9431   46.0588   32.1604 H           1 MOL       0.0736
     70 H17       -29.7988   48.3871   35.5608 H           1 MOL       0.1842
     71 H18       -31.3667   51.4667   34.8099 H           1 MOL       0.0244
     72 H19       -31.8321   49.8414   34.3044 H           1 MOL       0.0244
     73 H20       -30.1277   50.3113   34.3039 H           1 MOL       0.0244
     74 H21       -33.1063   49.8658   36.4614 H           1 MOL       0.0549
     75 H22       -32.4207   51.3169   37.1270 H           1 MOL       0.0549
     76 H23       -34.4829   49.0217   38.1557 H           1 MOL       0.0703
     77 H24       -30.7038   50.4655   39.3585 H           1 MOL       0.0703
     78 H25       -34.8382   48.1441   40.3555 H           1 MOL       0.0736
     79 H26       -31.0572   49.5560   41.5380 H           1 MOL       0.0736
     80 H27       -30.5147   52.3930   36.5484 H           1 MOL       0.1883
     81 H28       -28.8913   52.4252   38.7683 H           1 MOL       0.0754
     82 H29       -27.1256   51.7255   36.9887 H           1 MOL       0.0544
     83 H30       -26.7589   53.0770   38.0309 H           1 MOL       0.0544
     84 H31       -27.1154   53.7218   34.0779 H           1 MOL       0.1814
     85 H32       -27.5480   52.2030   34.6526 H           1 MOL       0.1814
@<TRIPOS>BOND
     1     1     5  ar
     2     2     1  ar
     3     3     2  ar
     4     6     3   1
     5     3     4  ar
     6     4    11  ar
     7    11    10   1
     8    11     5  ar
     9     7     6   1
    10     8     7   1
    11     8     9   2
    12    13    12   1
    13    13    16   1
    14    14    13   1
    15    14    15   2
    16    16    17   1
    17    17    19  ar
    18    17    18  ar
    19    18    20  ar
    20    20    22  ar
    21    22    23   1
    22    21    22  ar
    23    19    21  ar
    24    23    24   1
    25    24    27  ar
    26    24    26  ar
    27    24    25  ar
    28    29    28   1
    29    29    33   1
    30    31    29   1
    31    29    30   1
    32    31    32   2
    33    33    34   1
    34    34    36  ar
    35    34    35  ar
    36    35    37  ar
    37    37    39  ar
    38    39    40   1
    39    38    39  ar
    40    36    38  ar
    41    40    41   1
    42    41    44  ar
    43    41    43  ar
    44    41    42  ar
    45    46    47   1
    46    46    49   1
    47    45    46   1
    48    49    50   1
    49    50    51   2
    50    50    52  am
    51    47    53  ar
    52    47    48  ar
    53    28    14  am
    54    12     8  am
    55    31    45  am
    56     1    54   1
    57     2    55   1
    58     4    56   1
    59     5    57   1
    60     6    58   1
    61     6    59   1
    62    10    60   1
    63    10    61   1
    64    12    62   1
    65    13    63   1
    66    16    64   1
    67    16    65   1
    68    18    66   1
    69    19    67   1
    70    20    68   1
    71    21    69   1
    72    28    70   1
    73    30    71   1
    74    30    72   1
    75    30    73   1
    76    33    74   1
    77    33    75   1
    78    35    76   1
    79    36    77   1
    80    37    78   1
    81    38    79   1
    82    45    80   1
    83    46    81   1
    84    49    82   1
    85    49    83   1
    86    52    84   1
    87    52    85   1
@<TRIPOS>SUBSTRUCTURE
     1  MOL      1

