@<TRIPOS>MOLECULE
1jyq_ligand_087
    85    87
SMALL
GAST_HUCK
****
This file was generated by PARSER (from files_GN.cpp)

@<TRIPOS>ATOM
      1 C1        -24.6911   49.4483   30.6061 C.ar        1 MOL      -0.0801
      2 C2        -24.8221   48.6898   31.7874 C.ar        1 MOL      -0.0711
      3 C3        -26.0888   48.5088   32.3874 C.ar        1 MOL      -0.0250
      4 C4        -27.2162   49.1295   31.8044 C.ar        1 MOL      -0.0414
      5 C6        -25.8257   50.0314   30.0126 C.ar        1 MOL      -0.0516
      6 C12       -26.2640   47.6492   33.5797 C.3         1 MOL       0.1084
      7 O13       -27.3441   46.7276   33.3825 O.3         1 MOL      -0.2508
      8 C16       -27.3894   45.6851   32.5105 C.2         1 MOL       0.3241
      9 O18       -26.3070   45.3674   31.7557 O.2         1 MOL      -0.3773
     10 N11       -28.1902   50.4104   30.0395 N.pl3       1 MOL      -0.3383
     11 C5        -27.0944   49.8731   30.6115 C.ar        1 MOL       0.0282
     12 N         -28.5475   44.9933   32.4433 N.am        1 MOL      -0.2380
     13 CA        -28.8369   43.8415   31.6267 C.3         1 MOL       0.1484
     14 C         -28.0872   42.6476   32.0232 C.2         1 MOL       0.2046
     15 O         -27.2049   42.7342   32.8708 O.2         1 MOL      -0.3944
     16 CB        -28.7145   44.1561   30.1011 C.3         1 MOL       0.0400
     17 CG        -29.6191   45.2462   29.6474 C.ar        1 MOL      -0.0004
     18 CD1       -29.1107   46.4951   29.2111 C.ar        1 MOL      -0.0239
     19 CD2       -31.0191   45.0422   29.6194 C.ar        1 MOL      -0.0239
     20 CE1       -29.9739   47.5062   28.7564 C.ar        1 MOL       0.0115
     21 CE2       -31.8837   46.0548   29.1637 C.ar        1 MOL       0.0115
     22 CZ        -31.3700   47.3034   28.7468 C.ar        1 MOL       0.1728
     23 OH        -32.2155   48.2352   28.2125 O.3         1 MOL      -0.2040
     24 P         -32.7668   49.2700   29.2378 P.3         1 MOL       0.1348
     25 O1P       -33.3361   48.6905   30.4291 O.co2       1 MOL      -0.6653
     26 O2P       -33.8500   49.9459   28.5633 O.co2       1 MOL      -0.6653
     27 O3P       -31.8062   50.2988   29.5737 O.co2       1 MOL      -0.6653
     28 N         -28.3883   41.4506   31.5083 N.am        1 MOL      -0.2712
     29 CA        -27.8369   40.1526   31.8700 C.3         1 MOL       0.1461
     30 CH3       -28.1465   39.9292   33.3945 C.3         1 MOL      -0.0287
     31 C         -26.3926   40.0517   31.5904 C.2         1 MOL       0.2294
     32 O         -25.8818   40.8484   30.8078 O.2         1 MOL      -0.3416
     33 CB        -28.6294   39.0329   31.0745 C.3         1 MOL       0.0325
     34 CG        -28.0026   38.4707   29.8468 C.ar        1 MOL      -0.0034
     35 CD1       -28.2833   38.9989   28.5591 C.ar        1 MOL      -0.0242
     36 CD2       -27.1174   37.3604   29.9421 C.ar        1 MOL      -0.0242
     37 CE1       -27.7050   38.4287   27.4053 C.ar        1 MOL       0.0115
     38 CE2       -26.5358   36.7978   28.7917 C.ar        1 MOL       0.0115
     39 CZ        -26.8189   37.3228   27.5127 C.ar        1 MOL       0.1728
     40 OH        -26.2882   36.6598   26.4340 O.3         1 MOL      -0.2040
     41 P         -25.3291   37.4697   25.5149 P.3         1 MOL       0.1348
     42 O1P       -24.4578   36.5306   24.8519 O.co2       1 MOL      -0.6653
     43 O2P       -24.5036   38.4413   26.1958 O.co2       1 MOL      -0.6653
     44 O3P       -26.0879   38.1259   24.4775 O.co2       1 MOL      -0.6653
     45 N         -25.6745   39.0555   32.1058 N.am        1 MOL      -0.2663
     46 CA        -24.3095   38.6473   31.8735 C.3         1 MOL       0.1112
     47 C         -23.6209   38.4592   33.1676 C.2         1 MOL       0.0626
     48 O         -24.0513   39.0611   34.3006 O.co2       1 MOL      -0.5664
     49 CB        -23.3806   39.4444   30.8979 C.3         1 MOL       0.0720
     50 CG        -23.7424   39.2910   29.4979 C.2         1 MOL       0.1774
     51 OD1       -23.8644   40.2542   28.7576 O.2         1 MOL      -0.3971
     52 ND2       -23.8997   38.0921   28.9703 N.am        1 MOL      -0.3007
     53 OXT       -22.6420   37.5332   33.2736 O.co2       1 MOL      -0.5664
     54 H1        -23.7703   49.5704   30.1738 H           1 MOL       0.0566
     55 H2        -23.9867   48.2523   32.1824 H           1 MOL       0.0448
     56 H3        -28.1388   49.0149   32.2298 H           1 MOL       0.0451
     57 H4        -25.7278   50.5694   29.1498 H           1 MOL       0.0459
     58 H5        -26.5077   48.2851   34.4289 H           1 MOL       0.0774
     59 H6        -25.3549   47.0997   33.8196 H           1 MOL       0.0774
     60 H7        -29.0590   50.2943   30.4542 H           1 MOL       0.1718
     61 H8        -28.1117   50.8968   29.2055 H           1 MOL       0.1718
     62 H9        -29.2655   45.3074   33.0089 H           1 MOL       0.1902
     63 H10       -29.8854   43.6013   31.8267 H           1 MOL       0.0839
     64 H11       -28.9400   43.2548   29.5195 H           1 MOL       0.0584
     65 H12       -27.6719   44.4036   29.8767 H           1 MOL       0.0584
     66 H13       -28.1033   46.6707   29.2196 H           1 MOL       0.0703
     67 H14       -31.4228   44.1519   29.9153 H           1 MOL       0.0703
     68 H15       -29.5866   48.3907   28.4220 H           1 MOL       0.0736
     69 H16       -32.8935   45.8859   29.1233 H           1 MOL       0.0736
     70 H17       -29.1002   41.4405   30.8455 H           1 MOL       0.1842
     71 H18       -27.7945   38.9495   33.7419 H           1 MOL       0.0244
     72 H19       -29.2214   39.9836   33.5785 H           1 MOL       0.0244
     73 H20       -27.6637   40.6815   34.0141 H           1 MOL       0.0244
     74 H21       -29.6244   39.4146   30.7982 H           1 MOL       0.0549
     75 H22       -28.8504   38.1899   31.7457 H           1 MOL       0.0549
     76 H23       -28.9181   39.7892   28.4548 H           1 MOL       0.0703
     77 H24       -26.9096   36.9429   30.8531 H           1 MOL       0.0703
     78 H25       -27.9357   38.8002   26.4843 H           1 MOL       0.0736
     79 H26       -25.9287   35.9846   28.8876 H           1 MOL       0.0736
     80 H27       -26.1599   38.4774   32.7147 H           1 MOL       0.1883
     81 H28       -24.4161   37.6428   31.4560 H           1 MOL       0.0754
     82 H29       -22.3496   39.0824   30.9808 H           1 MOL       0.0544
     83 H30       -23.3751   40.5036   31.1757 H           1 MOL       0.0544
     84 H31       -24.1304   37.9995   28.0251 H           1 MOL       0.1814
     85 H32       -23.7793   37.3020   29.5276 H           1 MOL       0.1814
@<TRIPOS>BOND
     1     1     5  ar
     2     2     1  ar
     3     3     2  ar
     4     6     3   1
     5     3     4  ar
     6     4    11  ar
     7    11    10   1
     8    11     5  ar
     9     7     6   1
    10     8     7   1
    11     8     9   2
    12    13    12   1
    13    13    16   1
    14    14    13   1
    15    14    15   2
    16    16    17   1
    17    17    19  ar
    18    17    18  ar
    19    18    20  ar
    20    20    22  ar
    21    22    23   1
    22    21    22  ar
    23    19    21  ar
    24    23    24   1
    25    24    27  ar
    26    24    26  ar
    27    24    25  ar
    28    29    28   1
    29    29    33   1
    30    31    29   1
    31    29    30   1
    32    31    32   2
    33    33    34   1
    34    34    36  ar
    35    34    35  ar
    36    35    37  ar
    37    37    39  ar
    38    39    40   1
    39    38    39  ar
    40    36    38  ar
    41    40    41   1
    42    41    44  ar
    43    41    43  ar
    44    41    42  ar
    45    46    47   1
    46    46    49   1
    47    45    46   1
    48    49    50   1
    49    50    51   2
    50    50    52  am
    51    47    53  ar
    52    47    48  ar
    53    28    14  am
    54    12     8  am
    55    31    45  am
    56     1    54   1
    57     2    55   1
    58     4    56   1
    59     5    57   1
    60     6    58   1
    61     6    59   1
    62    10    60   1
    63    10    61   1
    64    12    62   1
    65    13    63   1
    66    16    64   1
    67    16    65   1
    68    18    66   1
    69    19    67   1
    70    20    68   1
    71    21    69   1
    72    28    70   1
    73    30    71   1
    74    30    72   1
    75    30    73   1
    76    33    74   1
    77    33    75   1
    78    35    76   1
    79    36    77   1
    80    37    78   1
    81    38    79   1
    82    45    80   1
    83    46    81   1
    84    49    82   1
    85    49    83   1
    86    52    84   1
    87    52    85   1
@<TRIPOS>SUBSTRUCTURE
     1  MOL      1

