@<TRIPOS>MOLECULE
1jyq_ligand_023
    85    87
SMALL
GAST_HUCK
****
This file was generated by PARSER (from files_GN.cpp)

@<TRIPOS>ATOM
      1 C1        -23.4186   40.7634   26.4135 C.ar        1 MOL      -0.0801
      2 C2        -22.7805   40.3799   27.6073 C.ar        1 MOL      -0.0711
      3 C3        -21.5293   40.9340   27.9731 C.ar        1 MOL      -0.0250
      4 C4        -20.9292   41.8715   27.0995 C.ar        1 MOL      -0.0414
      5 C6        -22.7996   41.6808   25.5464 C.ar        1 MOL      -0.0516
      6 C12       -20.8363   40.5284   29.2284 C.3         1 MOL       0.1084
      7 O13       -21.2738   41.2745   30.3783 O.3         1 MOL      -0.2508
      8 C16       -22.4202   41.0765   31.0846 C.2         1 MOL       0.3241
      9 O18       -23.2911   40.1151   30.7034 O.2         1 MOL      -0.3773
     10 N11       -20.9371   43.0791   25.0422 N.pl3       1 MOL      -0.3383
     11 C5        -21.5485   42.2300   25.8860 C.ar        1 MOL       0.0282
     12 N         -22.6454   41.8429   32.1775 N.am        1 MOL      -0.2380
     13 CA        -23.8111   41.8528   33.0269 C.3         1 MOL       0.1484
     14 C         -24.4570   40.5402   33.1974 C.2         1 MOL       0.2046
     15 O         -24.1804   39.8709   34.1885 O.2         1 MOL      -0.3944
     16 CB        -24.7516   43.0524   32.6502 C.3         1 MOL       0.0400
     17 CG        -26.2112   42.8683   32.8933 C.ar        1 MOL      -0.0004
     18 CD1       -27.0996   42.6511   31.8126 C.ar        1 MOL      -0.0239
     19 CD2       -26.7368   42.8624   34.2067 C.ar        1 MOL      -0.0239
     20 CE1       -28.4595   42.3785   32.0423 C.ar        1 MOL       0.0115
     21 CE2       -28.0979   42.5771   34.4365 C.ar        1 MOL       0.0115
     22 CZ        -28.9731   42.3441   33.3552 C.ar        1 MOL       0.1728
     23 OH        -30.2505   41.9071   33.5929 O.3         1 MOL      -0.2040
     24 P         -31.3216   43.0269   33.6430 P.3         1 MOL       0.1348
     25 O1P       -31.4499   43.7351   32.3945 O.co2       1 MOL      -0.6653
     26 O2P       -31.1127   43.9481   34.7349 O.co2       1 MOL      -0.6653
     27 O3P       -32.5851   42.3679   33.8772 O.co2       1 MOL      -0.6653
     28 N         -25.3408   40.1048   32.3014 N.am        1 MOL      -0.2712
     29 CA        -26.1791   38.9193   32.3085 C.3         1 MOL       0.1461
     30 CH3       -27.5515   39.3259   32.9389 C.3         1 MOL      -0.0287
     31 C         -25.5165   37.7906   32.9994 C.2         1 MOL       0.2294
     32 O         -24.3858   37.4808   32.6452 O.2         1 MOL      -0.3416
     33 CB        -26.4083   38.4713   30.8090 C.3         1 MOL       0.0325
     34 CG        -27.1316   39.4047   29.8935 C.ar        1 MOL      -0.0034
     35 CD1       -28.5203   39.6282   30.0465 C.ar        1 MOL      -0.0242
     36 CD2       -26.4612   40.0384   28.8185 C.ar        1 MOL      -0.0242
     37 CE1       -29.2103   40.4972   29.1790 C.ar        1 MOL       0.0115
     38 CE2       -27.1593   40.8764   27.9305 C.ar        1 MOL       0.0115
     39 CZ        -28.5362   41.1155   28.1011 C.ar        1 MOL       0.1728
     40 OH        -29.1293   42.0333   27.2716 O.3         1 MOL      -0.2040
     41 P         -30.2309   41.4675   26.3304 P.3         1 MOL       0.1348
     42 O1P       -29.8237   40.3134   25.5563 O.co2       1 MOL      -0.6653
     43 O2P       -30.6263   42.5130   25.4219 O.co2       1 MOL      -0.6653
     44 O3P       -31.3966   41.1335   27.1263 O.co2       1 MOL      -0.6653
     45 N         -26.0885   37.1030   33.9855 N.am        1 MOL      -0.2663
     46 CA        -25.5898   35.9023   34.6072 C.3         1 MOL       0.1112
     47 C         -26.5036   35.4692   35.6924 C.2         1 MOL       0.0626
     48 O         -26.2662   34.3087   36.3489 O.co2       1 MOL      -0.5664
     49 CB        -24.1113   36.0521   35.1245 C.3         1 MOL       0.0720
     50 CG        -23.1459   35.3002   34.3434 C.2         1 MOL       0.1774
     51 OD1       -22.2885   35.8633   33.6758 O.2         1 MOL      -0.3971
     52 ND2       -23.1743   33.9860   34.3388 N.am        1 MOL      -0.3007
     53 OXT       -27.5712   36.2054   36.0877 O.co2       1 MOL      -0.5664
     54 H1        -24.3259   40.3578   26.1676 H           1 MOL       0.0566
     55 H2        -23.2362   39.6852   28.2063 H           1 MOL       0.0448
     56 H3        -20.0266   42.2844   27.3445 H           1 MOL       0.0451
     57 H4        -23.2603   41.9378   24.6708 H           1 MOL       0.0459
     58 H5        -19.7625   40.6845   29.1130 H           1 MOL       0.0774
     59 H6        -20.9727   39.4583   29.4173 H           1 MOL       0.0774
     60 H7        -20.0642   43.4299   25.2712 H           1 MOL       0.1718
     61 H8        -21.3547   43.3234   24.2005 H           1 MOL       0.1718
     62 H9        -21.9692   42.5115   32.3843 H           1 MOL       0.1902
     63 H10       -23.4127   42.1236   34.0125 H           1 MOL       0.0839
     64 H11       -24.5882   43.2939   31.5997 H           1 MOL       0.0584
     65 H12       -24.4435   43.9358   33.2144 H           1 MOL       0.0584
     66 H13       -26.7569   42.6408   30.8489 H           1 MOL       0.0703
     67 H14       -26.1221   43.0182   35.0088 H           1 MOL       0.0703
     68 H15       -29.0808   42.2015   31.2479 H           1 MOL       0.0736
     69 H16       -28.4497   42.5197   35.3952 H           1 MOL       0.0736
     70 H17       -25.4959   40.7035   31.5557 H           1 MOL       0.1842
     71 H18       -28.2807   38.5123   32.8497 H           1 MOL       0.0244
     72 H19       -27.9667   40.2115   32.4406 H           1 MOL       0.0244
     73 H20       -27.4406   39.5714   33.9950 H           1 MOL       0.0244
     74 H21       -26.9508   37.5180   30.8016 H           1 MOL       0.0549
     75 H22       -25.4281   38.2517   30.3594 H           1 MOL       0.0549
     76 H23       -29.0347   39.1675   30.8017 H           1 MOL       0.0703
     77 H24       -25.4579   39.8943   28.6680 H           1 MOL       0.0703
     78 H25       -30.2030   40.6742   29.3363 H           1 MOL       0.0736
     79 H26       -26.6635   41.3227   27.1561 H           1 MOL       0.0736
     80 H27       -26.9640   37.4000   34.2737 H           1 MOL       0.1883
     81 H28       -25.6577   35.1144   33.8489 H           1 MOL       0.0754
     82 H29       -24.0156   35.7010   36.1564 H           1 MOL       0.0544
     83 H30       -23.8324   37.1098   35.1399 H           1 MOL       0.0544
     84 H31       -22.5146   33.4841   33.8349 H           1 MOL       0.1814
     85 H32       -23.8433   33.5097   34.8574 H           1 MOL       0.1814
@<TRIPOS>BOND
     1     1     5  ar
     2     2     1  ar
     3     3     2  ar
     4     6     3   1
     5     3     4  ar
     6     4    11  ar
     7    11    10   1
     8    11     5  ar
     9     7     6   1
    10     8     7   1
    11     8     9   2
    12    13    12   1
    13    13    16   1
    14    14    13   1
    15    14    15   2
    16    16    17   1
    17    17    19  ar
    18    17    18  ar
    19    18    20  ar
    20    20    22  ar
    21    22    23   1
    22    21    22  ar
    23    19    21  ar
    24    23    24   1
    25    24    27  ar
    26    24    26  ar
    27    24    25  ar
    28    29    28   1
    29    29    33   1
    30    31    29   1
    31    29    30   1
    32    31    32   2
    33    33    34   1
    34    34    36  ar
    35    34    35  ar
    36    35    37  ar
    37    37    39  ar
    38    39    40   1
    39    38    39  ar
    40    36    38  ar
    41    40    41   1
    42    41    44  ar
    43    41    43  ar
    44    41    42  ar
    45    46    47   1
    46    46    49   1
    47    45    46   1
    48    49    50   1
    49    50    51   2
    50    50    52  am
    51    47    53  ar
    52    47    48  ar
    53    28    14  am
    54    12     8  am
    55    31    45  am
    56     1    54   1
    57     2    55   1
    58     4    56   1
    59     5    57   1
    60     6    58   1
    61     6    59   1
    62    10    60   1
    63    10    61   1
    64    12    62   1
    65    13    63   1
    66    16    64   1
    67    16    65   1
    68    18    66   1
    69    19    67   1
    70    20    68   1
    71    21    69   1
    72    28    70   1
    73    30    71   1
    74    30    72   1
    75    30    73   1
    76    33    74   1
    77    33    75   1
    78    35    76   1
    79    36    77   1
    80    37    78   1
    81    38    79   1
    82    45    80   1
    83    46    81   1
    84    49    82   1
    85    49    83   1
    86    52    84   1
    87    52    85   1
@<TRIPOS>SUBSTRUCTURE
     1  MOL      1

