@<TRIPOS>MOLECULE
1jyq_ligand_000
    85    87
SMALL
GAST_HUCK
****
This file was generated by PARSER (from files_GN.cpp)

@<TRIPOS>ATOM
      1 C1        -29.0298   51.0611   44.1269 C.ar        1 MOL      -0.0801
      2 C2        -30.2438   50.4412   43.7729 C.ar        1 MOL      -0.0711
      3 C3        -31.4161   51.2054   43.5671 C.ar        1 MOL      -0.0250
      4 C4        -31.3472   52.6079   43.7534 C.ar        1 MOL      -0.0414
      5 C6        -28.9713   52.4560   44.2939 C.ar        1 MOL      -0.0516
      6 C12       -32.6941   50.5586   43.1653 C.3         1 MOL       0.1084
      7 O13       -32.7317   50.2705   41.7593 O.3         1 MOL      -0.2508
      8 C16       -31.9852   49.3536   41.0824 C.2         1 MOL       0.3241
      9 O18       -31.1330   48.5420   41.7665 O.2         1 MOL      -0.3773
     10 N11       -30.0844   54.5621   44.3183 N.pl3       1 MOL      -0.3383
     11 C5        -30.1340   53.2342   44.1228 C.ar        1 MOL       0.0282
     12 N         -32.1436   49.2511   39.7397 N.am        1 MOL      -0.2380
     13 CA        -31.4228   48.3414   38.8863 C.3         1 MOL       0.1484
     14 C         -30.8007   49.0615   37.7747 C.2         1 MOL       0.2046
     15 O         -31.4708   49.8333   37.0972 O.2         1 MOL      -0.3944
     16 CB        -32.3409   47.1890   38.3779 C.3         1 MOL       0.0400
     17 CG        -31.5525   46.0525   37.8202 C.ar        1 MOL      -0.0004
     18 CD1       -30.6125   45.3835   38.6374 C.ar        1 MOL      -0.0239
     19 CD2       -31.6770   45.6557   36.4671 C.ar        1 MOL      -0.0239
     20 CE1       -29.7936   44.3694   38.1100 C.ar        1 MOL       0.0115
     21 CE2       -30.8533   44.6413   35.9389 C.ar        1 MOL       0.0115
     22 CZ        -29.8814   44.0161   36.7482 C.ar        1 MOL       0.1728
     23 OH        -29.0512   43.0462   36.2546 O.3         1 MOL      -0.2040
     24 P         -27.7586   43.6154   35.6005 P.3         1 MOL       0.1348
     25 O1P       -27.0360   42.4805   35.0839 O.co2       1 MOL      -0.6653
     26 O2P       -26.9022   44.2535   36.5685 O.co2       1 MOL      -0.6653
     27 O3P       -28.0211   44.5006   34.4933 O.co2       1 MOL      -0.6653
     28 N         -29.5254   48.8171   37.4806 N.am        1 MOL      -0.2712
     29 CA        -28.7088   49.2906   36.3799 C.3         1 MOL       0.1461
     30 CH3       -27.2393   49.2005   36.9173 C.3         1 MOL      -0.0287
     31 C         -29.0224   50.6983   36.0761 C.2         1 MOL       0.2294
     32 O         -29.3577   51.0256   34.9462 O.2         1 MOL      -0.3416
     33 CB        -28.9262   48.2830   35.1821 C.3         1 MOL       0.0325
     34 CG        -28.0605   48.4318   33.9698 C.ar        1 MOL      -0.0034
     35 CD1       -28.5540   49.0465   32.7928 C.ar        1 MOL      -0.0242
     36 CD2       -26.7475   47.9020   33.9345 C.ar        1 MOL      -0.0242
     37 CE1       -27.7527   49.1637   31.6387 C.ar        1 MOL       0.0115
     38 CE2       -25.9445   48.0164   32.7828 C.ar        1 MOL       0.0115
     39 CZ        -26.4489   48.6309   31.6180 C.ar        1 MOL       0.1728
     40 OH        -25.6595   48.7960   30.5153 O.3         1 MOL      -0.2040
     41 P         -25.6223   47.5663   29.5591 P.3         1 MOL       0.1348
     42 O1P       -24.9747   46.4376   30.1798 O.co2       1 MOL      -0.6653
     43 O2P       -24.8278   47.9191   28.4108 O.co2       1 MOL      -0.6653
     44 O3P       -26.9228   47.1738   29.0759 O.co2       1 MOL      -0.6653
     45 N         -28.9973   51.6144   37.0391 N.am        1 MOL      -0.2663
     46 CA        -29.5031   52.9593   36.9783 C.3         1 MOL       0.1112
     47 C         -28.3611   53.8856   36.8213 C.2         1 MOL       0.0626
     48 O         -28.2680   54.7066   35.7560 O.co2       1 MOL      -0.5664
     49 CB        -30.4457   53.2239   38.2079 C.3         1 MOL       0.0720
     50 CG        -29.9296   54.0814   39.2601 C.2         1 MOL       0.1774
     51 OD1       -29.8345   55.2892   39.0720 O.2         1 MOL      -0.3971
     52 ND2       -29.5363   53.6102   40.4260 N.am        1 MOL      -0.3007
     53 OXT       -27.3708   53.9216   37.7355 O.co2       1 MOL      -0.5664
     54 H1        -28.1877   50.4957   44.2637 H           1 MOL       0.0566
     55 H2        -30.2631   49.4259   43.6660 H           1 MOL       0.0448
     56 H3        -32.1850   53.1841   43.6279 H           1 MOL       0.0451
     57 H4        -28.0860   52.8978   44.5473 H           1 MOL       0.0459
     58 H5        -33.5274   51.2278   43.3773 H           1 MOL       0.0774
     59 H6        -32.8688   49.6470   43.7409 H           1 MOL       0.0774
     60 H7        -30.8862   55.0990   44.2190 H           1 MOL       0.1718
     61 H8        -29.2500   54.9846   44.5753 H           1 MOL       0.1718
     62 H9        -32.7968   49.8361   39.3259 H           1 MOL       0.1902
     63 H10       -30.6288   47.8782   39.4846 H           1 MOL       0.0839
     64 H11       -33.0448   47.5856   37.6366 H           1 MOL       0.0584
     65 H12       -32.9394   46.8118   39.2099 H           1 MOL       0.0584
     66 H13       -30.5047   45.6436   39.6190 H           1 MOL       0.0703
     67 H14       -32.3442   46.1248   35.8488 H           1 MOL       0.0703
     68 H15       -29.1122   43.9060   38.7162 H           1 MOL       0.0736
     69 H16       -30.9407   44.3792   34.9554 H           1 MOL       0.0736
     70 H17       -29.0913   48.1809   38.0762 H           1 MOL       0.1842
     71 H18       -26.5316   49.6417   36.2105 H           1 MOL       0.0244
     72 H19       -26.9517   48.1588   37.0924 H           1 MOL       0.0244
     73 H20       -27.1290   49.7281   37.8689 H           1 MOL       0.0244
     74 H21       -29.9739   48.3496   34.8756 H           1 MOL       0.0549
     75 H22       -28.8012   47.2597   35.5493 H           1 MOL       0.0549
     76 H23       -29.5040   49.4269   32.7627 H           1 MOL       0.0703
     77 H24       -26.3658   47.4182   34.7523 H           1 MOL       0.0703
     78 H25       -28.1226   49.6301   30.8085 H           1 MOL       0.0736
     79 H26       -24.9926   47.6388   32.7936 H           1 MOL       0.0736
     80 H27       -28.6798   51.3142   37.9042 H           1 MOL       0.1883
     81 H28       -30.1415   53.0702   36.0973 H           1 MOL       0.0754
     82 H29       -30.7508   52.2701   38.6497 H           1 MOL       0.0544
     83 H30       -31.3733   53.6888   37.8494 H           1 MOL       0.0544
     84 H31       -29.1818   54.2150   41.1015 H           1 MOL       0.1814
     85 H32       -29.5854   52.6572   40.6147 H           1 MOL       0.1814
@<TRIPOS>BOND
     1     1     5  ar
     2     2     1  ar
     3     3     2  ar
     4     6     3   1
     5     3     4  ar
     6     4    11  ar
     7    11    10   1
     8    11     5  ar
     9     7     6   1
    10     8     7   1
    11     8     9   2
    12    13    12   1
    13    13    16   1
    14    14    13   1
    15    14    15   2
    16    16    17   1
    17    17    19  ar
    18    17    18  ar
    19    18    20  ar
    20    20    22  ar
    21    22    23   1
    22    21    22  ar
    23    19    21  ar
    24    23    24   1
    25    24    27  ar
    26    24    26  ar
    27    24    25  ar
    28    29    28   1
    29    29    33   1
    30    31    29   1
    31    29    30   1
    32    31    32   2
    33    33    34   1
    34    34    36  ar
    35    34    35  ar
    36    35    37  ar
    37    37    39  ar
    38    39    40   1
    39    38    39  ar
    40    36    38  ar
    41    40    41   1
    42    41    44  ar
    43    41    43  ar
    44    41    42  ar
    45    46    47   1
    46    46    49   1
    47    45    46   1
    48    49    50   1
    49    50    51   2
    50    50    52  am
    51    47    53  ar
    52    47    48  ar
    53    28    14  am
    54    12     8  am
    55    31    45  am
    56     1    54   1
    57     2    55   1
    58     4    56   1
    59     5    57   1
    60     6    58   1
    61     6    59   1
    62    10    60   1
    63    10    61   1
    64    12    62   1
    65    13    63   1
    66    16    64   1
    67    16    65   1
    68    18    66   1
    69    19    67   1
    70    20    68   1
    71    21    69   1
    72    28    70   1
    73    30    71   1
    74    30    72   1
    75    30    73   1
    76    33    74   1
    77    33    75   1
    78    35    76   1
    79    36    77   1
    80    37    78   1
    81    38    79   1
    82    45    80   1
    83    46    81   1
    84    49    82   1
    85    49    83   1
    86    52    84   1
    87    52    85   1
@<TRIPOS>SUBSTRUCTURE
     1  MOL      1

