@<TRIPOS>MOLECULE
1jyq_ligand_009
    85    87
SMALL
GAST_HUCK
****
This file was generated by PARSER (from files_GN.cpp)

@<TRIPOS>ATOM
      1 C1        -21.6194   41.2696   30.3775 C.ar        1 MOL      -0.0801
      2 C2        -22.1350   41.5890   31.6460 C.ar        1 MOL      -0.0711
      3 C3        -23.1110   40.7683   32.2572 C.ar        1 MOL      -0.0250
      4 C4        -23.5253   39.5928   31.5854 C.ar        1 MOL      -0.0414
      5 C6        -22.0669   40.1197   29.7041 C.ar        1 MOL      -0.0516
      6 C12       -23.6663   41.1394   33.5853 C.3         1 MOL       0.1084
      7 O13       -24.4799   42.3238   33.5539 O.3         1 MOL      -0.2508
      8 C16       -25.4852   42.6009   32.6808 C.2         1 MOL       0.3241
      9 O18       -25.7509   41.7492   31.6581 O.2         1 MOL      -0.3773
     10 N11       -23.4479   38.1819   29.6602 N.pl3       1 MOL      -0.3383
     11 C5        -23.0157   39.2761   30.3111 C.ar        1 MOL       0.0282
     12 N         -26.2235   43.7158   32.8918 N.am        1 MOL      -0.2380
     13 CA        -27.3203   44.1517   32.0592 C.3         1 MOL       0.1484
     14 C         -27.6909   45.5566   32.2629 C.2         1 MOL       0.2046
     15 O         -28.5391   46.0365   31.5179 O.2         1 MOL      -0.3944
     16 CB        -28.5593   43.2074   32.2643 C.3         1 MOL       0.0400
     17 CG        -29.5647   43.2853   31.1664 C.ar        1 MOL      -0.0004
     18 CD1       -30.8864   43.7280   31.4121 C.ar        1 MOL      -0.0239
     19 CD2       -29.2265   42.8605   29.8575 C.ar        1 MOL      -0.0239
     20 CE1       -31.8348   43.7714   30.3717 C.ar        1 MOL       0.0115
     21 CE2       -30.1720   42.9102   28.8169 C.ar        1 MOL       0.0115
     22 CZ        -31.4803   43.3868   29.0590 C.ar        1 MOL       0.1728
     23 OH        -32.4088   43.3677   28.0489 O.3         1 MOL      -0.2040
     24 P         -32.5063   44.7107   27.2662 P.3         1 MOL       0.1348
     25 O1P       -33.0409   45.7730   28.0842 O.co2       1 MOL      -0.6653
     26 O2P       -33.4343   44.5082   26.1832 O.co2       1 MOL      -0.6653
     27 O3P       -31.2545   45.1312   26.6834 O.co2       1 MOL      -0.6653
     28 N         -27.1098   46.3345   33.1874 N.am        1 MOL      -0.2712
     29 CA        -27.4003   47.7176   33.5349 C.3         1 MOL       0.1461
     30 CH3       -28.7907   47.7118   34.2559 C.3         1 MOL      -0.0287
     31 C         -27.3981   48.6141   32.3675 C.2         1 MOL       0.2294
     32 O         -27.8084   49.7645   32.4845 O.2         1 MOL      -0.3416
     33 CB        -26.2683   48.1642   34.5354 C.3         1 MOL       0.0325
     34 CG        -26.4671   49.4563   35.2596 C.ar        1 MOL      -0.0034
     35 CD1       -26.8678   49.4560   36.6211 C.ar        1 MOL      -0.0242
     36 CD2       -26.2496   50.6982   34.6181 C.ar        1 MOL      -0.0242
     37 CE1       -27.0804   50.6655   37.3090 C.ar        1 MOL       0.0115
     38 CE2       -26.4381   51.9077   35.3214 C.ar        1 MOL       0.0115
     39 CZ        -26.8954   51.9020   36.6584 C.ar        1 MOL       0.1728
     40 OH        -27.0925   53.0577   37.3736 O.3         1 MOL      -0.2040
     41 P         -28.2882   53.9251   36.8724 P.3         1 MOL       0.1348
     42 O1P       -28.7622   54.6779   38.0074 O.co2       1 MOL      -0.6653
     43 O2P       -29.4225   53.1989   36.3524 O.co2       1 MOL      -0.6653
     44 O3P       -27.8448   54.8953   35.9051 O.co2       1 MOL      -0.6653
     45 N         -26.8158   48.2322   31.2213 N.am        1 MOL      -0.2663
     46 CA        -26.6657   48.9865   30.0073 C.3         1 MOL       0.1112
     47 C         -26.8572   48.1215   28.8149 C.2         1 MOL       0.0626
     48 O         -26.6287   48.6201   27.5805 O.co2       1 MOL      -0.5664
     49 CB        -25.2793   49.7061   30.0198 C.3         1 MOL       0.0720
     50 CG        -24.1272   48.8378   30.2298 C.2         1 MOL       0.1774
     51 OD1       -23.5077   48.8708   31.2831 O.2         1 MOL      -0.3971
     52 ND2       -23.7030   48.0081   29.3013 N.am        1 MOL      -0.3007
     53 OXT       -27.3598   46.8650   28.8907 O.co2       1 MOL      -0.5664
     54 H1        -20.9206   41.8709   29.9405 H           1 MOL       0.0566
     55 H2        -21.8006   42.4283   32.1221 H           1 MOL       0.0448
     56 H3        -24.2199   38.9768   32.0151 H           1 MOL       0.0451
     57 H4        -21.6981   39.9015   28.7748 H           1 MOL       0.0459
     58 H5        -22.8414   41.3114   34.2830 H           1 MOL       0.0774
     59 H6        -24.2808   40.3343   33.9958 H           1 MOL       0.0774
     60 H7        -24.0923   37.5872   30.0780 H           1 MOL       0.1718
     61 H8        -23.1122   37.9838   28.7734 H           1 MOL       0.1718
     62 H9        -25.9805   44.2665   33.6553 H           1 MOL       0.1902
     63 H10       -26.9717   44.0889   31.0224 H           1 MOL       0.0839
     64 H11       -29.0192   43.4194   33.2327 H           1 MOL       0.0584
     65 H12       -28.2458   42.1621   32.3137 H           1 MOL       0.0584
     66 H13       -31.1679   44.0287   32.3494 H           1 MOL       0.0703
     67 H14       -28.2869   42.5048   29.6546 H           1 MOL       0.0703
     68 H15       -32.7905   44.0806   30.5695 H           1 MOL       0.0736
     69 H16       -29.9112   42.5950   27.8784 H           1 MOL       0.0736
     70 H17       -26.3992   45.9212   33.7037 H           1 MOL       0.1842
     71 H18       -29.0635   48.7105   34.6021 H           1 MOL       0.0244
     72 H19       -28.7696   47.0487   35.1233 H           1 MOL       0.0244
     73 H20       -29.5893   47.3716   33.5916 H           1 MOL       0.0244
     74 H21       -25.3149   48.2020   33.9998 H           1 MOL       0.0549
     75 H22       -26.1399   47.3815   35.2858 H           1 MOL       0.0549
     76 H23       -27.0263   48.5738   37.1168 H           1 MOL       0.0703
     77 H24       -25.9484   50.7211   33.6399 H           1 MOL       0.0703
     78 H25       -27.3837   50.6455   38.2853 H           1 MOL       0.0736
     79 H26       -26.2608   52.8050   34.8558 H           1 MOL       0.0736
     80 H27       -26.4278   47.3357   31.2034 H           1 MOL       0.1883
     81 H28       -27.4397   49.7592   29.9470 H           1 MOL       0.0754
     82 H29       -25.3099   50.4587   30.8201 H           1 MOL       0.0544
     83 H30       -25.1400   50.2643   29.0884 H           1 MOL       0.0544
     84 H31       -22.9318   47.4410   29.4768 H           1 MOL       0.1814
     85 H32       -24.1611   47.9528   28.4468 H           1 MOL       0.1814
@<TRIPOS>BOND
     1     1     5  ar
     2     2     1  ar
     3     3     2  ar
     4     6     3   1
     5     3     4  ar
     6     4    11  ar
     7    11    10   1
     8    11     5  ar
     9     7     6   1
    10     8     7   1
    11     8     9   2
    12    13    12   1
    13    13    16   1
    14    14    13   1
    15    14    15   2
    16    16    17   1
    17    17    19  ar
    18    17    18  ar
    19    18    20  ar
    20    20    22  ar
    21    22    23   1
    22    21    22  ar
    23    19    21  ar
    24    23    24   1
    25    24    27  ar
    26    24    26  ar
    27    24    25  ar
    28    29    28   1
    29    29    33   1
    30    31    29   1
    31    29    30   1
    32    31    32   2
    33    33    34   1
    34    34    36  ar
    35    34    35  ar
    36    35    37  ar
    37    37    39  ar
    38    39    40   1
    39    38    39  ar
    40    36    38  ar
    41    40    41   1
    42    41    44  ar
    43    41    43  ar
    44    41    42  ar
    45    46    47   1
    46    46    49   1
    47    45    46   1
    48    49    50   1
    49    50    51   2
    50    50    52  am
    51    47    53  ar
    52    47    48  ar
    53    28    14  am
    54    12     8  am
    55    31    45  am
    56     1    54   1
    57     2    55   1
    58     4    56   1
    59     5    57   1
    60     6    58   1
    61     6    59   1
    62    10    60   1
    63    10    61   1
    64    12    62   1
    65    13    63   1
    66    16    64   1
    67    16    65   1
    68    18    66   1
    69    19    67   1
    70    20    68   1
    71    21    69   1
    72    28    70   1
    73    30    71   1
    74    30    72   1
    75    30    73   1
    76    33    74   1
    77    33    75   1
    78    35    76   1
    79    36    77   1
    80    37    78   1
    81    38    79   1
    82    45    80   1
    83    46    81   1
    84    49    82   1
    85    49    83   1
    86    52    84   1
    87    52    85   1
@<TRIPOS>SUBSTRUCTURE
     1  MOL      1

