@<TRIPOS>MOLECULE
1jyq_ligand_036
    85    87
SMALL
GAST_HUCK
****
This file was generated by PARSER (from files_GN.cpp)

@<TRIPOS>ATOM
      1 C1        -30.1675   43.4914   38.8002 C.ar        1 MOL      -0.0801
      2 C2        -29.3165   43.4225   37.6822 C.ar        1 MOL      -0.0711
      3 C3        -29.8458   43.3741   36.3702 C.ar        1 MOL      -0.0250
      4 C4        -31.2509   43.3720   36.2111 C.ar        1 MOL      -0.0414
      5 C6        -31.5623   43.5081   38.6241 C.ar        1 MOL      -0.0516
      6 C12       -28.9443   43.3344   35.1843 C.3         1 MOL       0.1084
      7 O13       -28.5320   44.6448   34.7747 O.3         1 MOL      -0.2508
      8 C16       -27.7545   45.5241   35.4630 C.2         1 MOL       0.3241
      9 O18       -27.2346   45.1851   36.6650 O.2         1 MOL      -0.3773
     10 N11       -33.4413   43.4698   37.1575 N.pl3       1 MOL      -0.3383
     11 C5        -32.1068   43.4488   37.3290 C.ar        1 MOL       0.0282
     12 N         -27.5328   46.7421   34.9184 N.am        1 MOL      -0.2380
     13 CA        -26.8952   47.8575   35.5648 C.3         1 MOL       0.1484
     14 C         -27.9337   48.8318   35.9066 C.2         1 MOL       0.2046
     15 O         -28.0008   49.2303   37.0599 O.2         1 MOL      -0.3944
     16 CB        -25.7079   48.4530   34.7418 C.3         1 MOL       0.0400
     17 CG        -25.9462   48.5983   33.2792 C.ar        1 MOL      -0.0004
     18 CD1       -26.6530   49.7122   32.7597 C.ar        1 MOL      -0.0239
     19 CD2       -25.5003   47.6054   32.3773 C.ar        1 MOL      -0.0239
     20 CE1       -26.9804   49.7765   31.3948 C.ar        1 MOL       0.0115
     21 CE2       -25.7884   47.6924   31.0053 C.ar        1 MOL       0.0115
     22 CZ        -26.5779   48.7565   30.5112 C.ar        1 MOL       0.1728
     23 OH        -26.9284   48.8570   29.1930 O.3         1 MOL      -0.2040
     24 P         -28.2908   48.2004   28.8398 P.3         1 MOL       0.1348
     25 O1P       -28.9218   49.0402   27.8462 O.co2       1 MOL      -0.6653
     26 O2P       -29.2346   48.0638   29.9243 O.co2       1 MOL      -0.6653
     27 O3P       -28.0927   46.9140   28.2075 O.co2       1 MOL      -0.6653
     28 N         -28.8233   49.2533   35.0095 N.am        1 MOL      -0.2712
     29 CA        -29.8920   50.2335   35.1904 C.3         1 MOL       0.1461
     30 CH3       -30.3465   50.6388   33.7462 C.3         1 MOL      -0.0287
     31 C         -29.4299   51.4491   35.8838 C.2         1 MOL       0.2294
     32 O         -28.2408   51.5269   36.2231 O.2         1 MOL      -0.3416
     33 CB        -31.0975   49.5789   35.9749 C.3         1 MOL       0.0325
     34 CG        -31.8005   48.4617   35.2712 C.ar        1 MOL      -0.0034
     35 CD1       -31.1460   47.2315   35.0388 C.ar        1 MOL      -0.0242
     36 CD2       -33.1201   48.6192   34.7866 C.ar        1 MOL      -0.0242
     37 CE1       -31.7539   46.2219   34.2701 C.ar        1 MOL       0.0115
     38 CE2       -33.7437   47.6019   34.0350 C.ar        1 MOL       0.0115
     39 CZ        -33.0480   46.4072   33.7449 C.ar        1 MOL       0.1728
     40 OH        -33.6678   45.4308   33.0146 O.3         1 MOL      -0.2040
     41 P         -33.3429   45.4799   31.4941 P.3         1 MOL       0.1348
     42 O1P       -34.1629   44.4862   30.8405 O.co2       1 MOL      -0.6653
     43 O2P       -31.9682   45.1447   31.2127 O.co2       1 MOL      -0.6653
     44 O3P       -33.6671   46.7532   30.8930 O.co2       1 MOL      -0.6653
     45 N         -30.2506   52.4756   36.0802 N.am        1 MOL      -0.2663
     46 CA        -30.0592   53.6283   36.9212 C.3         1 MOL       0.1112
     47 C         -28.6958   54.2275   36.8726 C.2         1 MOL       0.0626
     48 O         -28.2703   54.8337   35.7405 O.co2       1 MOL      -0.5664
     49 CB        -30.6256   53.2863   38.3380 C.3         1 MOL       0.0720
     50 CG        -30.1026   54.0949   39.4273 C.2         1 MOL       0.1774
     51 OD1       -29.8489   55.2873   39.2650 O.2         1 MOL      -0.3971
     52 ND2       -29.7327   53.5395   40.5627 N.am        1 MOL      -0.3007
     53 OXT       -27.8010   54.0551   37.8779 O.co2       1 MOL      -0.5664
     54 H1        -29.7720   43.5341   39.7435 H           1 MOL       0.0566
     55 H2        -28.3071   43.3999   37.8359 H           1 MOL       0.0448
     56 H3        -31.6600   43.3181   35.2752 H           1 MOL       0.0451
     57 H4        -32.1747   43.5618   39.4439 H           1 MOL       0.0459
     58 H5        -29.4698   42.8790   34.3406 H           1 MOL       0.0774
     59 H6        -28.0631   42.7149   35.3747 H           1 MOL       0.0774
     60 H7        -33.8168   43.4319   36.2647 H           1 MOL       0.1718
     61 H8        -34.0299   43.5235   37.9272 H           1 MOL       0.1718
     62 H9        -27.9249   46.9028   34.0456 H           1 MOL       0.1902
     63 H10       -26.4381   47.5228   36.5038 H           1 MOL       0.0839
     64 H11       -24.8349   47.8119   34.8876 H           1 MOL       0.0584
     65 H12       -25.4294   49.4237   35.1671 H           1 MOL       0.0584
     66 H13       -26.9642   50.4599   33.3848 H           1 MOL       0.0703
     67 H14       -24.9694   46.7974   32.7172 H           1 MOL       0.0703
     68 H15       -27.5372   50.5621   31.0461 H           1 MOL       0.0736
     69 H16       -25.4649   46.9647   30.3666 H           1 MOL       0.0736
     70 H17       -28.7407   48.8763   34.1231 H           1 MOL       0.1842
     71 H18       -31.2228   51.2865   33.7759 H           1 MOL       0.0244
     72 H19       -30.6057   49.7594   33.1532 H           1 MOL       0.0244
     73 H20       -29.5516   51.1672   33.2200 H           1 MOL       0.0244
     74 H21       -31.8352   50.3528   36.2062 H           1 MOL       0.0549
     75 H22       -30.7593   49.2067   36.9441 H           1 MOL       0.0549
     76 H23       -30.2159   47.0572   35.4105 H           1 MOL       0.0703
     77 H24       -33.6298   49.4930   34.9525 H           1 MOL       0.0703
     78 H25       -31.2528   45.3582   34.0778 H           1 MOL       0.0736
     79 H26       -34.6953   47.7417   33.6917 H           1 MOL       0.0736
     80 H27       -31.1535   52.3694   35.7211 H           1 MOL       0.1883
     81 H28       -30.7219   54.3910   36.5088 H           1 MOL       0.0754
     82 H29       -30.4465   52.2241   38.5539 H           1 MOL       0.0544
     83 H30       -31.7154   53.4295   38.3273 H           1 MOL       0.0544
     84 H31       -29.2641   54.0464   41.2453 H           1 MOL       0.1814
     85 H32       -29.8956   52.5890   40.7111 H           1 MOL       0.1814
@<TRIPOS>BOND
     1     1     5  ar
     2     2     1  ar
     3     3     2  ar
     4     6     3   1
     5     3     4  ar
     6     4    11  ar
     7    11    10   1
     8    11     5  ar
     9     7     6   1
    10     8     7   1
    11     8     9   2
    12    13    12   1
    13    13    16   1
    14    14    13   1
    15    14    15   2
    16    16    17   1
    17    17    19  ar
    18    17    18  ar
    19    18    20  ar
    20    20    22  ar
    21    22    23   1
    22    21    22  ar
    23    19    21  ar
    24    23    24   1
    25    24    27  ar
    26    24    26  ar
    27    24    25  ar
    28    29    28   1
    29    29    33   1
    30    31    29   1
    31    29    30   1
    32    31    32   2
    33    33    34   1
    34    34    36  ar
    35    34    35  ar
    36    35    37  ar
    37    37    39  ar
    38    39    40   1
    39    38    39  ar
    40    36    38  ar
    41    40    41   1
    42    41    44  ar
    43    41    43  ar
    44    41    42  ar
    45    46    47   1
    46    46    49   1
    47    45    46   1
    48    49    50   1
    49    50    51   2
    50    50    52  am
    51    47    53  ar
    52    47    48  ar
    53    28    14  am
    54    12     8  am
    55    31    45  am
    56     1    54   1
    57     2    55   1
    58     4    56   1
    59     5    57   1
    60     6    58   1
    61     6    59   1
    62    10    60   1
    63    10    61   1
    64    12    62   1
    65    13    63   1
    66    16    64   1
    67    16    65   1
    68    18    66   1
    69    19    67   1
    70    20    68   1
    71    21    69   1
    72    28    70   1
    73    30    71   1
    74    30    72   1
    75    30    73   1
    76    33    74   1
    77    33    75   1
    78    35    76   1
    79    36    77   1
    80    37    78   1
    81    38    79   1
    82    45    80   1
    83    46    81   1
    84    49    82   1
    85    49    83   1
    86    52    84   1
    87    52    85   1
@<TRIPOS>SUBSTRUCTURE
     1  MOL      1

