@<TRIPOS>MOLECULE
1jyq_ligand_006
    85    87
SMALL
GAST_HUCK
****
This file was generated by PARSER (from files_GN.cpp)

@<TRIPOS>ATOM
      1 C1        -31.3376   51.0005   44.4868 C.ar        1 MOL      -0.0801
      2 C2        -31.8904   49.8693   43.8617 C.ar        1 MOL      -0.0711
      3 C3        -31.4317   49.4431   42.5910 C.ar        1 MOL      -0.0250
      4 C4        -30.4023   50.1883   41.9612 C.ar        1 MOL      -0.0414
      5 C6        -30.3202   51.7309   43.8455 C.ar        1 MOL      -0.0516
      6 C12       -32.0635   48.2585   41.9578 C.3         1 MOL       0.1084
      7 O13       -31.3299   47.7243   40.8451 O.3         1 MOL      -0.2508
      8 C16       -31.7291   47.6182   39.5502 C.2         1 MOL       0.3241
      9 O18       -32.9415   48.0846   39.1686 O.2         1 MOL      -0.3773
     10 N11       -28.8821   52.0248   41.9609 N.pl3       1 MOL      -0.3383
     11 C5        -29.8503   51.3261   42.5798 C.ar        1 MOL       0.0282
     12 N         -30.8693   47.0155   38.6978 N.am        1 MOL      -0.2380
     13 CA        -31.0159   46.7338   37.2939 C.3         1 MOL       0.1484
     14 C         -30.3601   47.7847   36.5118 C.2         1 MOL       0.2046
     15 O         -30.9518   48.2927   35.5680 O.2         1 MOL      -0.3944
     16 CB        -32.4724   46.3441   36.8634 C.3         1 MOL       0.0400
     17 CG        -32.5482   45.6015   35.5734 C.ar        1 MOL      -0.0004
     18 CD1       -32.1426   44.2431   35.5145 C.ar        1 MOL      -0.0239
     19 CD2       -33.0683   46.2021   34.4066 C.ar        1 MOL      -0.0239
     20 CE1       -32.2458   43.5162   34.3116 C.ar        1 MOL       0.0115
     21 CE2       -33.1674   45.4749   33.2026 C.ar        1 MOL       0.0115
     22 CZ        -32.7329   44.1303   33.1420 C.ar        1 MOL       0.1728
     23 OH        -32.9085   43.4089   31.9944 O.3         1 MOL      -0.2040
     24 P         -31.6895   43.4233   31.0232 P.3         1 MOL       0.1348
     25 O1P       -32.0274   42.5663   29.9137 O.co2       1 MOL      -0.6653
     26 O2P       -30.4978   42.8734   31.6136 O.co2       1 MOL      -0.6653
     27 O3P       -31.3997   44.7289   30.4759 O.co2       1 MOL      -0.6653
     28 N         -29.1261   48.1627   36.8488 N.am        1 MOL      -0.2712
     29 CA        -28.1828   49.0797   36.2382 C.3         1 MOL       0.1461
     30 CH3       -26.8960   48.8942   37.1198 C.3         1 MOL      -0.0287
     31 C         -28.6698   50.4778   36.3059 C.2         1 MOL       0.2294
     32 O         -29.7166   50.7609   35.7244 O.2         1 MOL      -0.3416
     33 CB        -27.7856   48.5845   34.7886 C.3         1 MOL       0.0325
     34 CG        -28.6255   48.9930   33.6323 C.ar        1 MOL      -0.0034
     35 CD1       -28.5144   50.3094   33.1168 C.ar        1 MOL      -0.0242
     36 CD2       -29.5160   48.0930   32.9990 C.ar        1 MOL      -0.0242
     37 CE1       -29.3163   50.7304   32.0454 C.ar        1 MOL       0.0115
     38 CE2       -30.3373   48.5212   31.9406 C.ar        1 MOL       0.0115
     39 CZ        -30.2709   49.8589   31.4789 C.ar        1 MOL       0.1728
     40 OH        -31.0775   50.2757   30.4586 O.3         1 MOL      -0.2040
     41 P         -32.1359   51.3414   30.8829 P.3         1 MOL       0.1348
     42 O1P       -32.8218   51.7515   29.6835 O.co2       1 MOL      -0.6653
     43 O2P       -31.5338   52.5304   31.4381 O.co2       1 MOL      -0.6653
     44 O3P       -33.1320   50.8200   31.7873 O.co2       1 MOL      -0.6653
     45 N         -28.0460   51.4572   36.9556 N.am        1 MOL      -0.2663
     46 CA        -28.4812   52.8170   37.1480 C.3         1 MOL       0.1112
     47 C         -27.4847   53.7288   36.5466 C.2         1 MOL       0.0626
     48 O         -27.8845   54.7098   35.7005 O.co2       1 MOL      -0.5664
     49 CB        -28.6854   53.0672   38.6726 C.3         1 MOL       0.0720
     50 CG        -29.1778   54.3936   39.0030 C.2         1 MOL       0.1774
     51 OD1       -29.9751   54.9566   38.2740 O.2         1 MOL      -0.3971
     52 ND2       -28.8273   55.0210   40.1048 N.am        1 MOL      -0.3007
     53 OXT       -26.1893   53.6870   36.9379 O.co2       1 MOL      -0.5664
     54 H1        -31.6754   51.2977   45.4052 H           1 MOL       0.0566
     55 H2        -32.6357   49.3594   44.3388 H           1 MOL       0.0448
     56 H3        -30.0595   49.9172   41.0349 H           1 MOL       0.0451
     57 H4        -29.9246   52.5578   44.3020 H           1 MOL       0.0459
     58 H5        -33.0839   48.5297   41.6706 H           1 MOL       0.0774
     59 H6        -32.1284   47.4542   42.6938 H           1 MOL       0.0774
     60 H7        -28.5606   51.7390   41.0905 H           1 MOL       0.1718
     61 H8        -28.5282   52.8313   42.3646 H           1 MOL       0.1718
     62 H9        -30.0104   46.7663   39.0804 H           1 MOL       0.1902
     63 H10       -30.4145   45.8299   37.1493 H           1 MOL       0.0839
     64 H11       -33.0845   47.2463   36.8057 H           1 MOL       0.0584
     65 H12       -32.9256   45.7152   37.6322 H           1 MOL       0.0584
     66 H13       -31.7902   43.7702   36.3482 H           1 MOL       0.0703
     67 H14       -33.3968   47.1689   34.4273 H           1 MOL       0.0703
     68 H15       -31.9626   42.5314   34.2927 H           1 MOL       0.0736
     69 H16       -33.5618   45.9227   32.3738 H           1 MOL       0.0736
     70 H17       -28.7918   47.7221   37.6446 H           1 MOL       0.1842
     71 H18       -26.0809   49.5347   36.7711 H           1 MOL       0.0244
     72 H19       -26.5382   47.8577   37.0802 H           1 MOL       0.0244
     73 H20       -27.0967   49.1383   38.1659 H           1 MOL       0.0244
     74 H21       -27.7278   47.4904   34.7971 H           1 MOL       0.0549
     75 H22       -26.7634   48.9094   34.5558 H           1 MOL       0.0549
     76 H23       -27.8681   50.9793   33.5384 H           1 MOL       0.0703
     77 H24       -29.5909   47.1240   33.3252 H           1 MOL       0.0703
     78 H25       -29.2231   51.6891   31.6942 H           1 MOL       0.0736
     79 H26       -30.9858   47.8646   31.5048 H           1 MOL       0.0736
     80 H27       -27.2104   51.2311   37.3913 H           1 MOL       0.1883
     81 H28       -29.4465   52.9919   36.6576 H           1 MOL       0.0754
     82 H29       -27.7435   52.8799   39.2021 H           1 MOL       0.0544
     83 H30       -29.4191   52.3445   39.0452 H           1 MOL       0.0544
     84 H31       -29.1852   55.9025   40.2968 H           1 MOL       0.1814
     85 H32       -28.2562   54.5875   40.7532 H           1 MOL       0.1814
@<TRIPOS>BOND
     1     1     5  ar
     2     2     1  ar
     3     3     2  ar
     4     6     3   1
     5     3     4  ar
     6     4    11  ar
     7    11    10   1
     8    11     5  ar
     9     7     6   1
    10     8     7   1
    11     8     9   2
    12    13    12   1
    13    13    16   1
    14    14    13   1
    15    14    15   2
    16    16    17   1
    17    17    19  ar
    18    17    18  ar
    19    18    20  ar
    20    20    22  ar
    21    22    23   1
    22    21    22  ar
    23    19    21  ar
    24    23    24   1
    25    24    27  ar
    26    24    26  ar
    27    24    25  ar
    28    29    28   1
    29    29    33   1
    30    31    29   1
    31    29    30   1
    32    31    32   2
    33    33    34   1
    34    34    36  ar
    35    34    35  ar
    36    35    37  ar
    37    37    39  ar
    38    39    40   1
    39    38    39  ar
    40    36    38  ar
    41    40    41   1
    42    41    44  ar
    43    41    43  ar
    44    41    42  ar
    45    46    47   1
    46    46    49   1
    47    45    46   1
    48    49    50   1
    49    50    51   2
    50    50    52  am
    51    47    53  ar
    52    47    48  ar
    53    28    14  am
    54    12     8  am
    55    31    45  am
    56     1    54   1
    57     2    55   1
    58     4    56   1
    59     5    57   1
    60     6    58   1
    61     6    59   1
    62    10    60   1
    63    10    61   1
    64    12    62   1
    65    13    63   1
    66    16    64   1
    67    16    65   1
    68    18    66   1
    69    19    67   1
    70    20    68   1
    71    21    69   1
    72    28    70   1
    73    30    71   1
    74    30    72   1
    75    30    73   1
    76    33    74   1
    77    33    75   1
    78    35    76   1
    79    36    77   1
    80    37    78   1
    81    38    79   1
    82    45    80   1
    83    46    81   1
    84    49    82   1
    85    49    83   1
    86    52    84   1
    87    52    85   1
@<TRIPOS>SUBSTRUCTURE
     1  MOL      1

