@<TRIPOS>MOLECULE
1jyq_ligand_083
    85    87
SMALL
GAST_HUCK
****
This file was generated by PARSER (from files_GN.cpp)

@<TRIPOS>ATOM
      1 C1        -30.6240   42.4313   37.8488 C.ar        1 MOL      -0.0801
      2 C2        -29.8870   43.0593   36.8269 C.ar        1 MOL      -0.0711
      3 C3        -28.6703   43.7189   37.1189 C.ar        1 MOL      -0.0250
      4 C4        -28.2182   43.7509   38.4599 C.ar        1 MOL      -0.0414
      5 C6        -30.1596   42.4658   39.1761 C.ar        1 MOL      -0.0516
      6 C12       -27.8709   44.3223   36.0253 C.3         1 MOL       0.1084
      7 O13       -28.5505   45.4484   35.4479 O.3         1 MOL      -0.2508
      8 C16       -28.1324   46.7422   35.4076 C.2         1 MOL       0.3241
      9 O18       -26.9726   47.1113   36.0049 O.2         1 MOL      -0.3773
     10 N11       -28.5062   43.1660   40.7544 N.pl3       1 MOL      -0.3383
     11 C5        -28.9555   43.1283   39.4862 C.ar        1 MOL       0.0282
     12 N         -28.9077   47.6359   34.7526 N.am        1 MOL      -0.2380
     13 CA        -28.6253   49.0368   34.5883 C.3         1 MOL       0.1484
     14 C         -29.6363   49.8071   35.3142 C.2         1 MOL       0.2046
     15 O         -30.2610   50.6990   34.7531 O.2         1 MOL      -0.3944
     16 CB        -28.5327   49.3741   33.0651 C.3         1 MOL       0.0400
     17 CG        -27.5045   48.6110   32.3020 C.ar        1 MOL      -0.0004
     18 CD1       -27.8873   47.6541   31.3321 C.ar        1 MOL      -0.0239
     19 CD2       -26.1247   48.8686   32.4870 C.ar        1 MOL      -0.0239
     20 CE1       -26.9221   46.9835   30.5609 C.ar        1 MOL       0.0115
     21 CE2       -25.1570   48.2000   31.7127 C.ar        1 MOL       0.0115
     22 CZ        -25.5523   47.2732   30.7263 C.ar        1 MOL       0.1728
     23 OH        -24.6244   46.5978   29.9852 O.3         1 MOL      -0.2040
     24 P         -24.2534   47.2649   28.6250 P.3         1 MOL       0.1348
     25 O1P       -22.9386   47.8493   28.6972 O.co2       1 MOL      -0.6653
     26 O2P       -25.1775   48.2318   28.0860 O.co2       1 MOL      -0.6653
     27 O3P       -24.1580   46.1989   27.6619 O.co2       1 MOL      -0.6653
     28 N         -29.8127   49.5845   36.6152 N.am        1 MOL      -0.2712
     29 CA        -30.6603   50.2950   37.5553 C.3         1 MOL       0.1461
     30 CH3       -32.1619   50.2118   37.0936 C.3         1 MOL      -0.0287
     31 C         -30.1734   51.6878   37.6540 C.2         1 MOL       0.2294
     32 O         -30.9733   52.6150   37.6176 O.2         1 MOL      -0.3416
     33 CB        -30.5065   49.6287   38.9806 C.3         1 MOL       0.0325
     34 CG        -31.2210   48.3320   39.1938 C.ar        1 MOL      -0.0034
     35 CD1       -30.8572   47.1735   38.4689 C.ar        1 MOL      -0.0242
     36 CD2       -32.3145   48.2446   40.0912 C.ar        1 MOL      -0.0242
     37 CE1       -31.6060   45.9903   38.5833 C.ar        1 MOL       0.0115
     38 CE2       -33.0492   47.0517   40.2219 C.ar        1 MOL       0.0115
     39 CZ        -32.7261   45.9275   39.4351 C.ar        1 MOL       0.1728
     40 OH        -33.4352   44.7619   39.5474 O.3         1 MOL      -0.2040
     41 P         -34.6623   44.6772   38.5886 P.3         1 MOL       0.1348
     42 O1P       -35.2530   43.3746   38.7517 O.co2       1 MOL      -0.6653
     43 O2P       -34.3065   44.8153   37.1995 O.co2       1 MOL      -0.6653
     44 O3P       -35.6789   45.6410   38.9234 O.co2       1 MOL      -0.6653
     45 N         -28.8741   51.9112   37.8561 N.am        1 MOL      -0.2663
     46 CA        -28.1179   53.1285   38.0430 C.3         1 MOL       0.1112
     47 C         -28.8380   54.3805   37.6958 C.2         1 MOL       0.0626
     48 O         -29.2355   54.6087   36.4237 O.co2       1 MOL      -0.5664
     49 CB        -26.7119   53.1108   37.3344 C.3         1 MOL       0.0720
     50 CG        -26.2256   51.8190   36.8791 C.2         1 MOL       0.1774
     51 OD1       -25.9768   50.9300   37.6810 O.2         1 MOL      -0.3971
     52 ND2       -26.0436   51.5660   35.6013 N.am        1 MOL      -0.3007
     53 OXT       -29.1821   55.2821   38.6408 O.co2       1 MOL      -0.5664
     54 H1        -31.5015   41.9553   37.6275 H           1 MOL       0.0566
     55 H2        -30.2379   43.0228   35.8664 H           1 MOL       0.0448
     56 H3        -27.3436   44.2263   38.6952 H           1 MOL       0.0451
     57 H4        -30.7046   42.0115   39.9133 H           1 MOL       0.0459
     58 H5        -27.7196   43.5763   35.2427 H           1 MOL       0.0774
     59 H6        -26.8787   44.6059   36.3812 H           1 MOL       0.0774
     60 H7        -27.6750   43.6232   40.9660 H           1 MOL       0.1718
     61 H8        -29.0109   42.7354   41.4623 H           1 MOL       0.1718
     62 H9        -29.7308   47.3019   34.3607 H           1 MOL       0.1902
     63 H10       -27.6628   49.2995   35.0359 H           1 MOL       0.0839
     64 H11       -28.3067   50.4383   32.9463 H           1 MOL       0.0584
     65 H12       -29.5200   49.2137   32.6216 H           1 MOL       0.0584
     66 H13       -28.8758   47.4436   31.1734 H           1 MOL       0.0703
     67 H14       -25.8138   49.5600   33.1738 H           1 MOL       0.0703
     68 H15       -27.2207   46.2960   29.8640 H           1 MOL       0.0736
     69 H16       -24.1629   48.3960   31.8555 H           1 MOL       0.0736
     70 H17       -29.2515   48.8903   36.9952 H           1 MOL       0.1842
     71 H18       -32.8263   50.5721   37.8820 H           1 MOL       0.0244
     72 H19       -32.4407   49.1841   36.8517 H           1 MOL       0.0244
     73 H20       -32.3443   50.8203   36.2068 H           1 MOL       0.0244
     74 H21       -30.8575   50.3451   39.7316 H           1 MOL       0.0549
     75 H22       -29.4473   49.4639   39.1989 H           1 MOL       0.0549
     76 H23       -30.0585   47.1829   37.8343 H           1 MOL       0.0703
     77 H24       -32.6008   49.0575   40.6426 H           1 MOL       0.0703
     78 H25       -31.3483   45.1790   38.0247 H           1 MOL       0.0736
     79 H26       -33.8389   47.0105   40.8701 H           1 MOL       0.0736
     80 H27       -28.3474   51.1028   37.9581 H           1 MOL       0.1883
     81 H28       -27.9244   53.1546   39.1195 H           1 MOL       0.0754
     82 H29       -25.9667   53.5060   38.0314 H           1 MOL       0.0544
     83 H30       -26.7040   53.7949   36.4784 H           1 MOL       0.0544
     84 H31       -25.7353   50.6917   35.3191 H           1 MOL       0.1814
     85 H32       -26.2341   52.2464   34.9350 H           1 MOL       0.1814
@<TRIPOS>BOND
     1     1     5  ar
     2     2     1  ar
     3     3     2  ar
     4     6     3   1
     5     3     4  ar
     6     4    11  ar
     7    11    10   1
     8    11     5  ar
     9     7     6   1
    10     8     7   1
    11     8     9   2
    12    13    12   1
    13    13    16   1
    14    14    13   1
    15    14    15   2
    16    16    17   1
    17    17    19  ar
    18    17    18  ar
    19    18    20  ar
    20    20    22  ar
    21    22    23   1
    22    21    22  ar
    23    19    21  ar
    24    23    24   1
    25    24    27  ar
    26    24    26  ar
    27    24    25  ar
    28    29    28   1
    29    29    33   1
    30    31    29   1
    31    29    30   1
    32    31    32   2
    33    33    34   1
    34    34    36  ar
    35    34    35  ar
    36    35    37  ar
    37    37    39  ar
    38    39    40   1
    39    38    39  ar
    40    36    38  ar
    41    40    41   1
    42    41    44  ar
    43    41    43  ar
    44    41    42  ar
    45    46    47   1
    46    46    49   1
    47    45    46   1
    48    49    50   1
    49    50    51   2
    50    50    52  am
    51    47    53  ar
    52    47    48  ar
    53    28    14  am
    54    12     8  am
    55    31    45  am
    56     1    54   1
    57     2    55   1
    58     4    56   1
    59     5    57   1
    60     6    58   1
    61     6    59   1
    62    10    60   1
    63    10    61   1
    64    12    62   1
    65    13    63   1
    66    16    64   1
    67    16    65   1
    68    18    66   1
    69    19    67   1
    70    20    68   1
    71    21    69   1
    72    28    70   1
    73    30    71   1
    74    30    72   1
    75    30    73   1
    76    33    74   1
    77    33    75   1
    78    35    76   1
    79    36    77   1
    80    37    78   1
    81    38    79   1
    82    45    80   1
    83    46    81   1
    84    49    82   1
    85    49    83   1
    86    52    84   1
    87    52    85   1
@<TRIPOS>SUBSTRUCTURE
     1  MOL      1

