@<TRIPOS>MOLECULE
1jyq_ligand_019
    85    87
SMALL
GAST_HUCK
****
This file was generated by PARSER (from files_GN.cpp)

@<TRIPOS>ATOM
      1 C1        -33.1215   38.6250   33.5368 C.ar        1 MOL      -0.0801
      2 C2        -31.8693   39.0914   33.9777 C.ar        1 MOL      -0.0711
      3 C3        -31.7381   40.3722   34.5674 C.ar        1 MOL      -0.0250
      4 C4        -32.8987   41.1729   34.7027 C.ar        1 MOL      -0.0414
      5 C6        -34.2643   39.4322   33.6778 C.ar        1 MOL      -0.0516
      6 C12       -30.4212   40.8831   35.0243 C.3         1 MOL       0.1084
      7 O13       -30.0610   42.0262   34.2387 O.3         1 MOL      -0.2508
      8 C16       -28.8615   42.6642   34.1915 C.2         1 MOL       0.3241
      9 O18       -27.8071   42.2029   34.9092 O.2         1 MOL      -0.3773
     10 N11       -35.2512   41.4796   34.3959 N.pl3       1 MOL      -0.3383
     11 C5        -34.1558   40.7090   34.2617 C.ar        1 MOL       0.0282
     12 N         -28.7643   43.6949   33.3237 N.am        1 MOL      -0.2380
     13 CA        -27.5940   44.4548   32.9758 C.3         1 MOL       0.1484
     14 C         -27.8708   45.8907   33.0612 C.2         1 MOL       0.2046
     15 O         -28.8816   46.3253   32.5180 O.2         1 MOL      -0.3944
     16 CB        -27.1017   44.0331   31.5541 C.3         1 MOL       0.0400
     17 CG        -28.1646   44.0100   30.5030 C.ar        1 MOL      -0.0004
     18 CD1       -28.5794   45.2003   29.8626 C.ar        1 MOL      -0.0239
     19 CD2       -28.8150   42.8006   30.1576 C.ar        1 MOL      -0.0239
     20 CE1       -29.6465   45.1921   28.9432 C.ar        1 MOL       0.0115
     21 CE2       -29.8718   42.7901   29.2283 C.ar        1 MOL       0.0115
     22 CZ        -30.3233   43.9918   28.6456 C.ar        1 MOL       0.1728
     23 OH        -31.3487   43.9965   27.7401 O.3         1 MOL      -0.2040
     24 P         -32.7612   44.1030   28.3821 P.3         1 MOL       0.1348
     25 O1P       -33.7243   44.1960   27.3105 O.co2       1 MOL      -0.6653
     26 O2P       -32.9287   45.2812   29.1970 O.co2       1 MOL      -0.6653
     27 O3P       -33.1012   42.9300   29.1476 O.co2       1 MOL      -0.6653
     28 N         -26.9845   46.7121   33.6214 N.am        1 MOL      -0.2712
     29 CA        -26.9504   48.1653   33.7456 C.3         1 MOL       0.1461
     30 CH3       -28.3894   48.7692   33.9442 C.3         1 MOL      -0.0287
     31 C         -26.2665   48.6476   32.5290 C.2         1 MOL       0.2294
     32 O         -26.7638   49.4973   31.8022 O.2         1 MOL      -0.3416
     33 CB        -26.0784   48.4627   35.0390 C.3         1 MOL       0.0325
     34 CG        -26.2251   49.7892   35.7243 C.ar        1 MOL      -0.0034
     35 CD1       -26.5291   49.8551   37.1070 C.ar        1 MOL      -0.0242
     36 CD2       -26.1246   51.0096   35.0129 C.ar        1 MOL      -0.0242
     37 CE1       -26.8101   51.0823   37.7352 C.ar        1 MOL       0.0115
     38 CE2       -26.4443   52.2372   35.6321 C.ar        1 MOL       0.0115
     39 CZ        -26.8526   52.2760   36.9820 C.ar        1 MOL       0.1728
     40 OH        -27.2627   53.4613   37.5376 O.3         1 MOL      -0.2040
     41 P         -28.8144   53.6237   37.5588 P.3         1 MOL       0.1348
     42 O1P       -29.4133   53.4283   36.2628 O.co2       1 MOL      -0.6653
     43 O2P       -29.1410   54.9800   37.9147 O.co2       1 MOL      -0.6653
     44 O3P       -29.4626   52.7687   38.5218 O.co2       1 MOL      -0.6653
     45 N         -25.0736   48.1435   32.2211 N.am        1 MOL      -0.2663
     46 CA        -24.1775   48.4165   31.1309 C.3         1 MOL       0.1112
     47 C         -23.8031   49.8444   31.0210 C.2         1 MOL       0.0626
     48 O         -24.7025   50.7787   30.6350 O.co2       1 MOL      -0.5664
     49 CB        -24.5437   47.7076   29.7792 C.3         1 MOL       0.0720
     50 CG        -25.2793   48.4608   28.7770 C.2         1 MOL       0.1774
     51 OD1       -24.8051   48.6530   27.6646 O.2         1 MOL      -0.3971
     52 ND2       -26.4979   48.8940   28.9973 N.am        1 MOL      -0.3007
     53 OXT       -22.5237   50.2453   31.2238 O.co2       1 MOL      -0.5664
     54 H1        -33.2013   37.6986   33.1112 H           1 MOL       0.0566
     55 H2        -31.0507   38.4888   33.8587 H           1 MOL       0.0448
     56 H3        -32.8265   42.1039   35.1246 H           1 MOL       0.0451
     57 H4        -35.1692   39.0847   33.3537 H           1 MOL       0.0459
     58 H5        -29.6446   40.1217   34.9206 H           1 MOL       0.0774
     59 H6        -30.4811   41.1599   36.0800 H           1 MOL       0.0774
     60 H7        -35.1818   42.3594   34.7993 H           1 MOL       0.1718
     61 H8        -36.1135   41.1560   34.0907 H           1 MOL       0.1718
     62 H9        -29.5667   43.9005   32.8189 H           1 MOL       0.1902
     63 H10       -26.7856   44.2189   33.6754 H           1 MOL       0.0839
     64 H11       -26.6550   43.0387   31.6386 H           1 MOL       0.0584
     65 H12       -26.2924   44.6933   31.2348 H           1 MOL       0.0584
     66 H13       -28.1191   46.0881   30.0765 H           1 MOL       0.0703
     67 H14       -28.5310   41.9180   30.5950 H           1 MOL       0.0703
     68 H15       -29.9347   46.0659   28.4959 H           1 MOL       0.0736
     69 H16       -30.3252   41.9057   28.9902 H           1 MOL       0.0736
     70 H17       -26.1850   46.2684   33.9559 H           1 MOL       0.1842
     71 H18       -28.3531   49.8389   34.1618 H           1 MOL       0.0244
     72 H19       -28.9047   48.2715   34.7697 H           1 MOL       0.0244
     73 H20       -29.0025   48.6708   33.0478 H           1 MOL       0.0244
     74 H21       -25.0146   48.3428   34.8282 H           1 MOL       0.0549
     75 H22       -26.3090   47.6811   35.7701 H           1 MOL       0.0549
     76 H23       -26.5803   48.9997   37.6697 H           1 MOL       0.0703
     77 H24       -25.8635   51.0104   34.0234 H           1 MOL       0.0703
     78 H25       -27.0574   51.0909   38.7270 H           1 MOL       0.0736
     79 H26       -26.4223   53.1002   35.0834 H           1 MOL       0.0736
     80 H27       -24.7283   47.4934   32.8539 H           1 MOL       0.1883
     81 H28       -23.2623   47.9043   31.4591 H           1 MOL       0.0754
     82 H29       -25.1081   46.7976   30.0036 H           1 MOL       0.0544
     83 H30       -23.6026   47.3795   29.3210 H           1 MOL       0.0544
     84 H31       -26.9880   49.3414   28.2846 H           1 MOL       0.1814
     85 H32       -26.9186   48.7514   29.8628 H           1 MOL       0.1814
@<TRIPOS>BOND
     1     1     5  ar
     2     2     1  ar
     3     3     2  ar
     4     6     3   1
     5     3     4  ar
     6     4    11  ar
     7    11    10   1
     8    11     5  ar
     9     7     6   1
    10     8     7   1
    11     8     9   2
    12    13    12   1
    13    13    16   1
    14    14    13   1
    15    14    15   2
    16    16    17   1
    17    17    19  ar
    18    17    18  ar
    19    18    20  ar
    20    20    22  ar
    21    22    23   1
    22    21    22  ar
    23    19    21  ar
    24    23    24   1
    25    24    27  ar
    26    24    26  ar
    27    24    25  ar
    28    29    28   1
    29    29    33   1
    30    31    29   1
    31    29    30   1
    32    31    32   2
    33    33    34   1
    34    34    36  ar
    35    34    35  ar
    36    35    37  ar
    37    37    39  ar
    38    39    40   1
    39    38    39  ar
    40    36    38  ar
    41    40    41   1
    42    41    44  ar
    43    41    43  ar
    44    41    42  ar
    45    46    47   1
    46    46    49   1
    47    45    46   1
    48    49    50   1
    49    50    51   2
    50    50    52  am
    51    47    53  ar
    52    47    48  ar
    53    28    14  am
    54    12     8  am
    55    31    45  am
    56     1    54   1
    57     2    55   1
    58     4    56   1
    59     5    57   1
    60     6    58   1
    61     6    59   1
    62    10    60   1
    63    10    61   1
    64    12    62   1
    65    13    63   1
    66    16    64   1
    67    16    65   1
    68    18    66   1
    69    19    67   1
    70    20    68   1
    71    21    69   1
    72    28    70   1
    73    30    71   1
    74    30    72   1
    75    30    73   1
    76    33    74   1
    77    33    75   1
    78    35    76   1
    79    36    77   1
    80    37    78   1
    81    38    79   1
    82    45    80   1
    83    46    81   1
    84    49    82   1
    85    49    83   1
    86    52    84   1
    87    52    85   1
@<TRIPOS>SUBSTRUCTURE
     1  MOL      1

