@<TRIPOS>MOLECULE
1jyq_ligand_024
    85    87
SMALL
GAST_HUCK
****
This file was generated by PARSER (from files_GN.cpp)

@<TRIPOS>ATOM
      1 C1        -31.8298   43.5692   32.7555 C.ar        1 MOL      -0.0801
      2 C2        -30.4751   43.8542   32.9936 C.ar        1 MOL      -0.0711
      3 C3        -29.8147   43.3327   34.1304 C.ar        1 MOL      -0.0250
      4 C4        -30.5441   42.5120   35.0237 C.ar        1 MOL      -0.0414
      5 C6        -32.5454   42.7536   33.6484 C.ar        1 MOL      -0.0516
      6 C12       -28.3825   43.6533   34.3495 C.3         1 MOL       0.1084
      7 O13       -28.2407   45.0724   34.4849 O.3         1 MOL      -0.2508
      8 C16       -27.6947   45.7892   35.4996 C.2         1 MOL       0.3241
      9 O18       -27.1326   45.1803   36.5699 O.2         1 MOL      -0.3773
     10 N11       -32.5971   41.4390   35.6326 N.pl3       1 MOL      -0.3383
     11 C5        -31.9063   42.2232   34.7861 C.ar        1 MOL       0.0282
     12 N         -27.7154   47.1263   35.3525 N.am        1 MOL      -0.2380
     13 CA        -27.1343   48.1208   36.2190 C.3         1 MOL       0.1484
     14 C         -28.1648   48.9737   36.8168 C.2         1 MOL       0.2046
     15 O         -27.9565   49.3726   37.9582 O.2         1 MOL      -0.3944
     16 CB        -26.0186   48.9446   35.4878 C.3         1 MOL       0.0400
     17 CG        -26.1732   49.0215   34.0011 C.ar        1 MOL      -0.0004
     18 CD1       -27.1012   49.9069   33.4101 C.ar        1 MOL      -0.0239
     19 CD2       -25.4450   48.1447   33.1632 C.ar        1 MOL      -0.0239
     20 CE1       -27.3126   49.8968   32.0194 C.ar        1 MOL       0.0115
     21 CE2       -25.6597   48.1304   31.7758 C.ar        1 MOL       0.0115
     22 CZ        -26.5818   49.0238   31.1910 C.ar        1 MOL       0.1728
     23 OH        -26.8382   48.9875   29.8451 O.3         1 MOL      -0.2040
     24 P         -25.9477   49.9279   28.9773 P.3         1 MOL       0.1348
     25 O1P       -24.9950   50.7483   29.6826 O.co2       1 MOL      -0.6653
     26 O2P       -26.8543   50.8296   28.3011 O.co2       1 MOL      -0.6653
     27 O3P       -25.2781   49.1806   27.9341 O.co2       1 MOL      -0.6653
     28 N         -29.2796   49.3387   36.1713 N.am        1 MOL      -0.2712
     29 CA        -30.4562   50.0270   36.6832 C.3         1 MOL       0.1461
     30 CH3       -31.1702   50.6868   35.4463 C.3         1 MOL      -0.0287
     31 C         -30.0643   51.1491   37.5738 C.2         1 MOL       0.2294
     32 O         -30.6985   51.3941   38.6009 O.2         1 MOL      -0.3416
     33 CB        -31.4761   48.9841   37.3221 C.3         1 MOL       0.0325
     34 CG        -30.9533   47.6814   37.8268 C.ar        1 MOL      -0.0034
     35 CD1       -30.4634   46.7267   36.9035 C.ar        1 MOL      -0.0242
     36 CD2       -31.0645   47.3017   39.1853 C.ar        1 MOL      -0.0242
     37 CE1       -30.0869   45.4393   37.3204 C.ar        1 MOL       0.0115
     38 CE2       -30.6907   46.0097   39.6057 C.ar        1 MOL       0.0115
     39 CZ        -30.1792   45.0765   38.6757 C.ar        1 MOL       0.1728
     40 OH        -29.9048   43.7703   39.0046 O.3         1 MOL      -0.2040
     41 P         -28.4963   43.5229   39.6193 P.3         1 MOL       0.1348
     42 O1P       -28.4847   43.9128   41.0106 O.co2       1 MOL      -0.6653
     43 O2P       -27.3940   44.1453   38.9271 O.co2       1 MOL      -0.6653
     44 O3P       -28.2641   42.0986   39.6002 O.co2       1 MOL      -0.6653
     45 N         -29.0029   51.8940   37.2804 N.am        1 MOL      -0.2663
     46 CA        -28.4315   52.9699   38.0474 C.3         1 MOL       0.1112
     47 C         -29.1099   54.2346   37.6675 C.2         1 MOL       0.0626
     48 O         -30.4592   54.3053   37.7018 O.co2       1 MOL      -0.5664
     49 CB        -26.8825   52.9509   37.8691 C.3         1 MOL       0.0720
     50 CG        -26.4020   53.4485   36.5880 C.2         1 MOL       0.1774
     51 OD1       -26.7671   54.5451   36.1778 O.2         1 MOL      -0.3971
     52 ND2       -25.5530   52.7698   35.8493 N.am        1 MOL      -0.3007
     53 OXT       -28.4530   55.4116   37.7039 O.co2       1 MOL      -0.5664
     54 H1        -32.2942   43.9504   31.9299 H           1 MOL       0.0566
     55 H2        -29.9701   44.4470   32.3310 H           1 MOL       0.0448
     56 H3        -30.0853   42.1217   35.8543 H           1 MOL       0.0451
     57 H4        -33.5294   42.5480   33.4658 H           1 MOL       0.0459
     58 H5        -27.8135   43.3324   33.4736 H           1 MOL       0.0774
     59 H6        -27.9762   43.1283   35.2187 H           1 MOL       0.0774
     60 H7        -32.1658   41.0634   36.4183 H           1 MOL       0.1718
     61 H8        -33.5319   41.2396   35.4550 H           1 MOL       0.1718
     62 H9        -28.1211   47.4600   34.5400 H           1 MOL       0.1902
     63 H10       -26.6416   47.6035   37.0517 H           1 MOL       0.0839
     64 H11       -25.0587   48.4735   35.7249 H           1 MOL       0.0584
     65 H12       -25.9469   49.9573   35.8933 H           1 MOL       0.0584
     66 H13       -27.6485   50.5445   33.9894 H           1 MOL       0.0703
     67 H14       -24.7794   47.4800   33.5649 H           1 MOL       0.0703
     68 H15       -28.0039   50.5278   31.6081 H           1 MOL       0.0736
     69 H16       -25.1376   47.4733   31.1923 H           1 MOL       0.0736
     70 H17       -29.3661   49.0169   35.2596 H           1 MOL       0.1842
     71 H18       -32.0700   51.2187   35.7686 H           1 MOL       0.0244
     72 H19       -31.4665   49.9260   34.7210 H           1 MOL       0.0244
     73 H20       -30.5264   51.3953   34.9210 H           1 MOL       0.0244
     74 H21       -32.2382   48.7165   36.5846 H           1 MOL       0.0549
     75 H22       -32.0573   49.4663   38.1127 H           1 MOL       0.0549
     76 H23       -30.4189   46.9482   35.9066 H           1 MOL       0.0703
     77 H24       -31.4523   47.9508   39.8736 H           1 MOL       0.0703
     78 H25       -29.7798   44.7572   36.6314 H           1 MOL       0.0736
     79 H26       -30.8106   45.7360   40.5859 H           1 MOL       0.0736
     80 H27       -28.5489   51.6925   36.4391 H           1 MOL       0.1883
     81 H28       -28.6273   52.8252   39.1170 H           1 MOL       0.0754
     82 H29       -26.5335   51.9179   38.0126 H           1 MOL       0.0544
     83 H30       -26.4343   53.5459   38.6705 H           1 MOL       0.0544
     84 H31       -25.2525   53.1374   35.0012 H           1 MOL       0.1814
     85 H32       -25.2343   51.9024   36.1509 H           1 MOL       0.1814
@<TRIPOS>BOND
     1     1     5  ar
     2     2     1  ar
     3     3     2  ar
     4     6     3   1
     5     3     4  ar
     6     4    11  ar
     7    11    10   1
     8    11     5  ar
     9     7     6   1
    10     8     7   1
    11     8     9   2
    12    13    12   1
    13    13    16   1
    14    14    13   1
    15    14    15   2
    16    16    17   1
    17    17    19  ar
    18    17    18  ar
    19    18    20  ar
    20    20    22  ar
    21    22    23   1
    22    21    22  ar
    23    19    21  ar
    24    23    24   1
    25    24    27  ar
    26    24    26  ar
    27    24    25  ar
    28    29    28   1
    29    29    33   1
    30    31    29   1
    31    29    30   1
    32    31    32   2
    33    33    34   1
    34    34    36  ar
    35    34    35  ar
    36    35    37  ar
    37    37    39  ar
    38    39    40   1
    39    38    39  ar
    40    36    38  ar
    41    40    41   1
    42    41    44  ar
    43    41    43  ar
    44    41    42  ar
    45    46    47   1
    46    46    49   1
    47    45    46   1
    48    49    50   1
    49    50    51   2
    50    50    52  am
    51    47    53  ar
    52    47    48  ar
    53    28    14  am
    54    12     8  am
    55    31    45  am
    56     1    54   1
    57     2    55   1
    58     4    56   1
    59     5    57   1
    60     6    58   1
    61     6    59   1
    62    10    60   1
    63    10    61   1
    64    12    62   1
    65    13    63   1
    66    16    64   1
    67    16    65   1
    68    18    66   1
    69    19    67   1
    70    20    68   1
    71    21    69   1
    72    28    70   1
    73    30    71   1
    74    30    72   1
    75    30    73   1
    76    33    74   1
    77    33    75   1
    78    35    76   1
    79    36    77   1
    80    37    78   1
    81    38    79   1
    82    45    80   1
    83    46    81   1
    84    49    82   1
    85    49    83   1
    86    52    84   1
    87    52    85   1
@<TRIPOS>SUBSTRUCTURE
     1  MOL      1

