@<TRIPOS>MOLECULE
1kel_ligand_035
    40    40
SMALL
GAST_HUCK
****
This file was generated by PARSER (from files_GN.cpp)

@<TRIPOS>ATOM
      1 C1        -24.5901   43.6402   17.7632 C.ar        1 AAH      -0.0251
      2 C2        -23.7448   42.7531   17.0774 C.ar        1 AAH      -0.0467
      3 C3        -23.4929   41.4494   17.5776 C.ar        1 AAH       0.0074
      4 C4        -24.0605   41.0972   18.8279 C.ar        1 AAH      -0.0467
      5 C5        -24.9103   41.9964   19.5094 C.ar        1 AAH      -0.0251
      6 C6        -25.2049   43.2791   18.9863 C.ar        1 AAH       0.1925
      7 N7        -26.0176   44.1520   19.6559 N.2         1 AAH       0.3095
      8 O8        -26.2740   45.2536   19.2441 O.2         1 AAH       0.1751
      9 O9        -26.5832   43.8443   20.7945 O.2         1 AAH       0.1751
     10 C10       -22.5896   40.5034   16.8629 C.3         1 AAH       0.0060
     11 N11       -23.0962   39.1011   16.5780 N.4         1 AAH       0.2598
     12 C12       -22.2358   38.3522   15.5737 C.3         1 AAH       0.0389
     13 P13       -20.8600   37.6356   16.1726 P.3         1 AAH       0.1070
     14 O14       -21.1480   36.4239   16.9111 O.co2       1 AAH      -0.5587
     15 O15       -20.0363   37.2650   15.0433 O.co2       1 AAH      -0.5587
     16 O16       -20.0486   38.5344   16.9550 O.co2       1 AAH      -0.5587
     17 C17       -24.5622   38.9926   16.2562 C.3         1 AAH      -0.0289
     18 C18       -25.1148   39.9602   15.1610 C.3         1 AAH      -0.0110
     19 C19       -26.5072   39.5092   14.6476 C.3         1 AAH      -0.0366
     20 C20       -27.0272   40.3094   13.4037 C.3         1 AAH       0.0004
     21 C21       -27.3277   39.4646   12.2273 C.2         1 AAH       0.0348
     22 O22       -27.6839   38.1622   12.3686 O.co2       1 AAH      -0.5690
     23 O23       -27.2156   39.9630   10.9746 O.co2       1 AAH      -0.5690
     24 H1        -24.7460   44.5636   17.3528 H           1 AAH       0.0676
     25 H2        -23.3356   43.0397   16.1858 H           1 AAH       0.0576
     26 H3        -23.8740   40.1841   19.2449 H           1 AAH       0.0576
     27 H4        -25.3344   41.6909   20.3922 H           1 AAH       0.0676
     28 H5        -21.6803   40.4150   17.4635 H           1 AAH       0.0994
     29 H6        -22.2968   40.9540   15.9104 H           1 AAH       0.0994
     30 H7        -23.0024   38.5962   17.4629 H           1 AAH       0.2064
     31 H8        -21.9452   39.0146   14.7557 H           1 AAH       0.1014
     32 H9        -22.7959   37.5292   15.1154 H           1 AAH       0.1014
     33 H10       -25.1381   39.1565   17.1689 H           1 AAH       0.0815
     34 H11       -24.7766   37.9552   15.9576 H           1 AAH       0.0815
     35 H12       -24.4186   39.9939   14.3131 H           1 AAH       0.0318
     36 H13       -25.1962   40.9681   15.5794 H           1 AAH       0.0318
     37 H14       -27.2410   39.6225   15.4597 H           1 AAH       0.0285
     38 H15       -26.4393   38.4431   14.4111 H           1 AAH       0.0285
     39 H16       -26.3132   41.0844   13.1038 H           1 AAH       0.0430
     40 H17       -27.9504   40.8308   13.6676 H           1 AAH       0.0430
@<TRIPOS>BOND
     1     1     6  ar
     2     1     2  ar
     3     2     3  ar
     4     3    10   1
     5     3     4  ar
     6     4     5  ar
     7     5     6  ar
     8     6     7   1
     9     7     9   2
    10     7     8   2
    11    10    11   1
    12    11    17   1
    13    11    12   1
    14    12    13   1
    15    13    16  ar
    16    13    15  ar
    17    13    14  ar
    18    17    18   1
    19    18    19   1
    20    19    20   1
    21    20    21   1
    22    21    23  ar
    23    21    22  ar
    24     1    24   1
    25     2    25   1
    26     4    26   1
    27     5    27   1
    28    10    28   1
    29    10    29   1
    30    11    30   1
    31    12    31   1
    32    12    32   1
    33    17    33   1
    34    17    34   1
    35    18    35   1
    36    18    36   1
    37    19    37   1
    38    19    38   1
    39    20    39   1
    40    20    40   1
@<TRIPOS>SUBSTRUCTURE
     1  AAH      1

