@<TRIPOS>MOLECULE
1kel_ligand_003
    40    40
SMALL
GAST_HUCK
****
This file was generated by PARSER (from files_GN.cpp)

@<TRIPOS>ATOM
      1 C1        -23.5970   36.0639   16.8753 C.ar        1 AAH      -0.0251
      2 C2        -23.5358   37.3537   16.3182 C.ar        1 AAH      -0.0467
      3 C3        -22.3006   37.9515   15.9628 C.ar        1 AAH       0.0074
      4 C4        -21.1295   37.1757   16.1508 C.ar        1 AAH      -0.0467
      5 C5        -21.1829   35.8873   16.7113 C.ar        1 AAH      -0.0251
      6 C6        -22.4154   35.3187   17.1280 C.ar        1 AAH       0.1925
      7 N7        -22.4598   34.0937   17.7151 N.2         1 AAH       0.3095
      8 O8        -23.4834   33.6033   18.1278 O.2         1 AAH       0.1751
      9 O9        -21.3858   33.3881   17.9307 O.2         1 AAH       0.1751
     10 C10       -22.2222   39.3353   15.3986 C.3         1 AAH       0.0060
     11 N11       -22.9583   40.4732   16.0724 N.4         1 AAH       0.2598
     12 C12       -22.8935   40.3590   17.5830 C.3         1 AAH       0.0389
     13 P13       -23.8841   41.3003   18.5493 P.3         1 AAH       0.1070
     14 O14       -25.1979   40.6920   18.6035 O.co2       1 AAH      -0.5587
     15 O15       -23.3664   41.3427   19.8980 O.co2       1 AAH      -0.5587
     16 O16       -23.9951   42.6522   18.0469 O.co2       1 AAH      -0.5587
     17 C17       -24.2985   40.8582   15.4900 C.3         1 AAH      -0.0289
     18 C18       -24.3240   41.1638   13.9540 C.3         1 AAH      -0.0110
     19 C19       -25.6161   41.8500   13.4239 C.3         1 AAH      -0.0366
     20 C20       -26.9741   41.3696   13.9852 C.3         1 AAH       0.0004
     21 C21       -27.1738   39.9098   13.9470 C.2         1 AAH       0.0348
     22 O22       -27.6778   39.2550   15.0191 O.co2       1 AAH      -0.5690
     23 O23       -26.6437   39.1672   12.9399 O.co2       1 AAH      -0.5690
     24 H1        -24.5086   35.6865   17.1309 H           1 AAH       0.0676
     25 H2        -24.4174   37.8446   16.1425 H           1 AAH       0.0576
     26 H3        -20.2131   37.5496   15.8802 H           1 AAH       0.0576
     27 H4        -20.3089   35.3698   16.8252 H           1 AAH       0.0676
     28 H5        -22.5013   39.2433   14.3543 H           1 AAH       0.0994
     29 H6        -21.1733   39.6444   15.3847 H           1 AAH       0.0994
     30 H7        -22.3844   41.3014   15.8489 H           1 AAH       0.2064
     31 H8        -21.8621   40.6043   17.8665 H           1 AAH       0.1014
     32 H9        -23.0890   39.3151   17.8726 H           1 AAH       0.1014
     33 H10       -24.6176   41.7823   15.9699 H           1 AAH       0.0815
     34 H11       -25.0445   40.0883   15.7154 H           1 AAH       0.0815
     35 H12       -24.1514   40.2281   13.3992 H           1 AAH       0.0318
     36 H13       -23.4953   41.8450   13.7239 H           1 AAH       0.0318
     37 H14       -25.6316   41.7377   12.3301 H           1 AAH       0.0285
     38 H15       -25.5417   42.9236   13.6310 H           1 AAH       0.0285
     39 H16       -27.7838   41.8362   13.4126 H           1 AAH       0.0430
     40 H17       -27.0735   41.7114   15.0192 H           1 AAH       0.0430
@<TRIPOS>BOND
     1     1     6  ar
     2     1     2  ar
     3     2     3  ar
     4     3    10   1
     5     3     4  ar
     6     4     5  ar
     7     5     6  ar
     8     6     7   1
     9     7     9   2
    10     7     8   2
    11    10    11   1
    12    11    17   1
    13    11    12   1
    14    12    13   1
    15    13    16  ar
    16    13    15  ar
    17    13    14  ar
    18    17    18   1
    19    18    19   1
    20    19    20   1
    21    20    21   1
    22    21    23  ar
    23    21    22  ar
    24     1    24   1
    25     2    25   1
    26     4    26   1
    27     5    27   1
    28    10    28   1
    29    10    29   1
    30    11    30   1
    31    12    31   1
    32    12    32   1
    33    17    33   1
    34    17    34   1
    35    18    35   1
    36    18    36   1
    37    19    37   1
    38    19    38   1
    39    20    39   1
    40    20    40   1
@<TRIPOS>SUBSTRUCTURE
     1  AAH      1

