@<TRIPOS>MOLECULE
1kel_ligand_031
    40    40
SMALL
GAST_HUCK
****
This file was generated by PARSER (from files_GN.cpp)

@<TRIPOS>ATOM
      1 C1        -26.5320   40.2649   12.0377 C.ar        1 AAH      -0.0251
      2 C2        -25.5613   40.6381   12.9880 C.ar        1 AAH      -0.0467
      3 C3        -25.9359   41.2833   14.1854 C.ar        1 AAH       0.0074
      4 C4        -27.3055   41.5602   14.4003 C.ar        1 AAH      -0.0467
      5 C5        -28.2710   41.1982   13.4416 C.ar        1 AAH      -0.0251
      6 C6        -27.9065   40.5345   12.2450 C.ar        1 AAH       0.1925
      7 N7        -28.8497   40.1751   11.3226 N.2         1 AAH       0.3095
      8 O8        -28.5730   39.5882   10.3081 O.2         1 AAH       0.1751
      9 O9        -30.1144   40.4618   11.4737 O.2         1 AAH       0.1751
     10 C10       -24.9249   41.6741   15.2058 C.3         1 AAH       0.0060
     11 N11       -25.0114   40.8043   16.4358 N.4         1 AAH       0.2598
     12 C12       -24.6277   41.5292   17.7023 C.3         1 AAH       0.0389
     13 P13       -25.8120   42.5542   18.2861 P.3         1 AAH       0.1070
     14 O14       -25.7324   43.8549   17.6754 O.co2       1 AAH      -0.5587
     15 O15       -27.1294   42.0224   18.0526 O.co2       1 AAH      -0.5587
     16 O16       -25.6689   42.7398   19.7053 O.co2       1 AAH      -0.5587
     17 C17       -24.2842   39.4971   16.2441 C.3         1 AAH      -0.0289
     18 C18       -24.7943   38.3353   17.1401 C.3         1 AAH      -0.0110
     19 C19       -24.2188   36.9326   16.7603 C.3         1 AAH      -0.0366
     20 C20       -23.4851   36.2005   17.9248 C.3         1 AAH       0.0004
     21 C21       -23.5143   34.7317   17.8170 C.2         1 AAH       0.0348
     22 O22       -22.4274   33.9893   18.1167 O.co2       1 AAH      -0.5690
     23 O23       -24.7068   34.0959   17.7607 O.co2       1 AAH      -0.5690
     24 H1        -26.2156   39.7990   11.1842 H           1 AAH       0.0676
     25 H2        -24.5786   40.4185   12.8027 H           1 AAH       0.0576
     26 H3        -27.6091   42.0351   15.2541 H           1 AAH       0.0576
     27 H4        -29.2498   41.4278   13.6317 H           1 AAH       0.0676
     28 H5        -25.1068   42.7248   15.4357 H           1 AAH       0.0994
     29 H6        -23.9126   41.6353   14.7914 H           1 AAH       0.0994
     30 H7        -26.0009   40.5572   16.5353 H           1 AAH       0.2064
     31 H8        -23.6993   42.0918   17.5573 H           1 AAH       0.1014
     32 H9        -24.4408   40.8212   18.5079 H           1 AAH       0.1014
     33 H10       -23.2115   39.6378   16.4122 H           1 AAH       0.0815
     34 H11       -24.4071   39.1583   15.2122 H           1 AAH       0.0815
     35 H12       -25.8830   38.3008   17.0546 H           1 AAH       0.0318
     36 H13       -24.5589   38.5526   18.1783 H           1 AAH       0.0318
     37 H14       -23.5157   37.0216   15.9261 H           1 AAH       0.0285
     38 H15       -25.0503   36.3156   16.4094 H           1 AAH       0.0285
     39 H16       -23.9430   36.4616   18.8772 H           1 AAH       0.0430
     40 H17       -22.4459   36.5421   17.9527 H           1 AAH       0.0430
@<TRIPOS>BOND
     1     1     6  ar
     2     1     2  ar
     3     2     3  ar
     4     3    10   1
     5     3     4  ar
     6     4     5  ar
     7     5     6  ar
     8     6     7   1
     9     7     9   2
    10     7     8   2
    11    10    11   1
    12    11    17   1
    13    11    12   1
    14    12    13   1
    15    13    16  ar
    16    13    15  ar
    17    13    14  ar
    18    17    18   1
    19    18    19   1
    20    19    20   1
    21    20    21   1
    22    21    23  ar
    23    21    22  ar
    24     1    24   1
    25     2    25   1
    26     4    26   1
    27     5    27   1
    28    10    28   1
    29    10    29   1
    30    11    30   1
    31    12    31   1
    32    12    32   1
    33    17    33   1
    34    17    34   1
    35    18    35   1
    36    18    36   1
    37    19    37   1
    38    19    38   1
    39    20    39   1
    40    20    40   1
@<TRIPOS>SUBSTRUCTURE
     1  AAH      1

