@<TRIPOS>MOLECULE
1kel_ligand_020
    40    40
SMALL
GAST_HUCK
****
This file was generated by PARSER (from files_GN.cpp)

@<TRIPOS>ATOM
      1 C1        -24.9205   42.2552   12.3059 C.ar        1 AAH      -0.0251
      2 C2        -23.9556   41.7428   13.1871 C.ar        1 AAH      -0.0467
      3 C3        -24.1606   40.5083   13.8339 C.ar        1 AAH       0.0074
      4 C4        -25.3418   39.7767   13.5493 C.ar        1 AAH      -0.0467
      5 C5        -26.3037   40.2963   12.6596 C.ar        1 AAH      -0.0251
      6 C6        -26.1187   41.5468   12.0282 C.ar        1 AAH       0.1925
      7 N7        -27.0653   42.0551   11.1831 N.2         1 AAH       0.3095
      8 O8        -26.9392   43.1238   10.6441 O.2         1 AAH       0.1751
      9 O9        -28.1748   41.4204   10.9173 O.2         1 AAH       0.1751
     10 C10       -23.1484   39.9437   14.7624 C.3         1 AAH       0.0060
     11 N11       -23.5654   39.9301   16.2058 N.4         1 AAH       0.2598
     12 C12       -23.7390   41.3146   16.7940 C.3         1 AAH       0.0389
     13 P13       -25.3284   41.7542   17.0323 P.3         1 AAH       0.1070
     14 O14       -26.0413   42.0456   15.8169 O.co2       1 AAH      -0.5587
     15 O15       -26.0451   40.7301   17.7569 O.co2       1 AAH      -0.5587
     16 O16       -25.3844   42.9538   17.8347 O.co2       1 AAH      -0.5587
     17 C17       -22.6775   39.0616   17.0671 C.3         1 AAH      -0.0289
     18 C18       -22.1935   37.6784   16.5332 C.3         1 AAH      -0.0110
     19 C19       -23.3133   36.6381   16.2130 C.3         1 AAH      -0.0366
     20 C20       -23.7610   35.7665   17.4188 C.3         1 AAH       0.0004
     21 C21       -22.8390   34.6745   17.8119 C.2         1 AAH       0.0348
     22 O22       -23.2860   33.6809   18.6054 O.co2       1 AAH      -0.5690
     23 O23       -21.5426   34.6279   17.4085 O.co2       1 AAH      -0.5690
     24 H1        -24.7390   43.1593   11.8659 H           1 AAH       0.0676
     25 H2        -23.1062   42.2853   13.3695 H           1 AAH       0.0576
     26 H3        -25.5105   38.8737   13.9927 H           1 AAH       0.0576
     27 H4        -27.1432   39.7399   12.4872 H           1 AAH       0.0676
     28 H5        -22.1924   40.4776   14.6885 H           1 AAH       0.0994
     29 H6        -22.9757   38.9317   14.3927 H           1 AAH       0.0994
     30 H7        -24.4839   39.4802   16.2312 H           1 AAH       0.2064
     31 H8        -23.2739   42.0866   16.1722 H           1 AAH       0.1014
     32 H9        -23.2556   41.4076   17.7728 H           1 AAH       0.1014
     33 H10       -23.2246   38.8649   17.9947 H           1 AAH       0.0815
     34 H11       -21.7775   39.6268   17.3296 H           1 AAH       0.0815
     35 H12       -21.5124   37.2493   17.2745 H           1 AAH       0.0318
     36 H13       -21.5899   37.8357   15.6392 H           1 AAH       0.0318
     37 H14       -22.9636   35.9750   15.4148 H           1 AAH       0.0285
     38 H15       -24.1837   37.1641   15.8219 H           1 AAH       0.0285
     39 H16       -24.7156   35.2977   17.1592 H           1 AAH       0.0430
     40 H17       -23.9259   36.4082   18.2898 H           1 AAH       0.0430
@<TRIPOS>BOND
     1     1     6  ar
     2     1     2  ar
     3     2     3  ar
     4     3    10   1
     5     3     4  ar
     6     4     5  ar
     7     5     6  ar
     8     6     7   1
     9     7     9   2
    10     7     8   2
    11    10    11   1
    12    11    17   1
    13    11    12   1
    14    12    13   1
    15    13    16  ar
    16    13    15  ar
    17    13    14  ar
    18    17    18   1
    19    18    19   1
    20    19    20   1
    21    20    21   1
    22    21    23  ar
    23    21    22  ar
    24     1    24   1
    25     2    25   1
    26     4    26   1
    27     5    27   1
    28    10    28   1
    29    10    29   1
    30    11    30   1
    31    12    31   1
    32    12    32   1
    33    17    33   1
    34    17    34   1
    35    18    35   1
    36    18    36   1
    37    19    37   1
    38    19    38   1
    39    20    39   1
    40    20    40   1
@<TRIPOS>SUBSTRUCTURE
     1  AAH      1

