@<TRIPOS>MOLECULE
1kel_ligand_037
    40    40
SMALL
GAST_HUCK
****
This file was generated by PARSER (from files_GN.cpp)

@<TRIPOS>ATOM
      1 C1        -28.5796   42.2544   11.9207 C.ar        1 AAH      -0.0251
      2 C2        -27.3238   42.0258   12.5149 C.ar        1 AAH      -0.0467
      3 C3        -26.8461   40.7156   12.7427 C.ar        1 AAH       0.0074
      4 C4        -27.6732   39.6409   12.3407 C.ar        1 AAH      -0.0467
      5 C5        -28.9370   39.8610   11.7707 C.ar        1 AAH      -0.0251
      6 C6        -29.4197   41.1750   11.5423 C.ar        1 AAH       0.1925
      7 N7        -30.6449   41.3906   10.9723 N.2         1 AAH       0.3095
      8 O8        -31.0743   42.4902   10.7494 O.2         1 AAH       0.1751
      9 O9        -31.4395   40.4027   10.6336 O.2         1 AAH       0.1751
     10 C10       -25.4897   40.4854   13.3195 C.3         1 AAH       0.0060
     11 N11       -25.4983   39.9537   14.7409 N.4         1 AAH       0.2598
     12 C12       -24.6914   40.7802   15.7036 C.3         1 AAH       0.0389
     13 P13       -23.0204   40.7205   15.6496 P.3         1 AAH       0.1070
     14 O14       -22.4848   41.8376   14.9071 O.co2       1 AAH      -0.5587
     15 O15       -22.4934   40.8168   16.9877 O.co2       1 AAH      -0.5587
     16 O16       -22.5044   39.5079   15.0697 O.co2       1 AAH      -0.5587
     17 C17       -25.3073   38.4552   14.8010 C.3         1 AAH      -0.0289
     18 C18       -25.1670   37.7094   16.1716 C.3         1 AAH      -0.0110
     19 C19       -23.8329   36.9182   16.3177 C.3         1 AAH      -0.0366
     20 C20       -23.8574   35.8222   17.4188 C.3         1 AAH       0.0004
     21 C21       -22.6383   34.9895   17.4573 C.2         1 AAH       0.0348
     22 O22       -22.6395   33.8673   18.2106 O.co2       1 AAH      -0.5690
     23 O23       -21.4339   35.5243   17.1621 O.co2       1 AAH      -0.5690
     24 H1        -28.8781   43.2208   11.7628 H           1 AAH       0.0676
     25 H2        -26.7538   42.8366   12.7652 H           1 AAH       0.0576
     26 H3        -27.3554   38.6760   12.4337 H           1 AAH       0.0576
     27 H4        -29.5024   39.0489   11.5036 H           1 AAH       0.0676
     28 H5        -24.9491   41.4314   13.2700 H           1 AAH       0.0994
     29 H6        -24.9399   39.8228   12.6475 H           1 AAH       0.0994
     30 H7        -26.4600   40.0954   15.0643 H           1 AAH       0.2064
     31 H8        -25.0064   40.5441   16.7207 H           1 AAH       0.1014
     32 H9        -24.9782   41.8262   15.5589 H           1 AAH       0.1014
     33 H10       -24.4733   38.1678   14.1511 H           1 AAH       0.0815
     34 H11       -26.2007   38.0287   14.3466 H           1 AAH       0.0815
     35 H12       -25.9847   36.9825   16.2544 H           1 AAH       0.0318
     36 H13       -25.2850   38.4090   17.0071 H           1 AAH       0.0318
     37 H14       -23.0252   37.6222   16.5442 H           1 AAH       0.0285
     38 H15       -23.6023   36.4254   15.3663 H           1 AAH       0.0285
     39 H16       -24.7048   35.1553   17.2476 H           1 AAH       0.0430
     40 H17       -23.9808   36.2894   18.4000 H           1 AAH       0.0430
@<TRIPOS>BOND
     1     1     6  ar
     2     1     2  ar
     3     2     3  ar
     4     3    10   1
     5     3     4  ar
     6     4     5  ar
     7     5     6  ar
     8     6     7   1
     9     7     9   2
    10     7     8   2
    11    10    11   1
    12    11    17   1
    13    11    12   1
    14    12    13   1
    15    13    16  ar
    16    13    15  ar
    17    13    14  ar
    18    17    18   1
    19    18    19   1
    20    19    20   1
    21    20    21   1
    22    21    23  ar
    23    21    22  ar
    24     1    24   1
    25     2    25   1
    26     4    26   1
    27     5    27   1
    28    10    28   1
    29    10    29   1
    30    11    30   1
    31    12    31   1
    32    12    32   1
    33    17    33   1
    34    17    34   1
    35    18    35   1
    36    18    36   1
    37    19    37   1
    38    19    38   1
    39    20    39   1
    40    20    40   1
@<TRIPOS>SUBSTRUCTURE
     1  AAH      1

