@<TRIPOS>MOLECULE
1kel_ligand_012
    40    40
SMALL
GAST_HUCK
****
This file was generated by PARSER (from files_GN.cpp)

@<TRIPOS>ATOM
      1 C1        -25.3577   41.5025   19.3513 C.ar        1 AAH      -0.0251
      2 C2        -25.7307   41.5168   17.9978 C.ar        1 AAH      -0.0467
      3 C3        -24.7724   41.3278   16.9777 C.ar        1 AAH       0.0074
      4 C4        -23.4161   41.1852   17.3542 C.ar        1 AAH      -0.0467
      5 C5        -23.0493   41.1516   18.7095 C.ar        1 AAH      -0.0251
      6 C6        -24.0083   41.2925   19.7431 C.ar        1 AAH       0.1925
      7 N7        -23.6467   41.2175   21.0546 N.2         1 AAH       0.3095
      8 O8        -24.4411   41.3244   21.9540 O.2         1 AAH       0.1751
      9 O9        -22.4178   40.9883   21.4316 O.2         1 AAH       0.1751
     10 C10       -25.1763   41.2620   15.5461 C.3         1 AAH       0.0060
     11 N11       -24.8013   39.9959   14.8215 N.4         1 AAH       0.2598
     12 C12       -25.0714   40.0705   13.3340 C.3         1 AAH       0.0389
     13 P13       -26.6527   40.1347   12.7982 P.3         1 AAH       0.1070
     14 O14       -26.7879   39.5816   11.4710 O.co2       1 AAH      -0.5587
     15 O15       -27.5215   39.3403   13.6376 O.co2       1 AAH      -0.5587
     16 O16       -27.1646   41.4844   12.7752 O.co2       1 AAH      -0.5587
     17 C17       -25.2584   38.6993   15.4642 C.3         1 AAH      -0.0289
     18 C18       -24.3046   38.1534   16.5725 C.3         1 AAH      -0.0110
     19 C19       -24.2759   36.6062   16.6690 C.3         1 AAH      -0.0366
     20 C20       -23.5020   36.0903   17.9058 C.3         1 AAH       0.0004
     21 C21       -23.4384   34.6168   17.9662 C.2         1 AAH       0.0348
     22 O22       -22.2526   33.9646   18.0177 O.co2       1 AAH      -0.5690
     23 O23       -24.5676   33.8766   18.0376 O.co2       1 AAH      -0.5690
     24 H1        -26.0861   41.6307   20.0569 H           1 AAH       0.0676
     25 H2        -26.7176   41.6494   17.7600 H           1 AAH       0.0576
     26 H3        -22.6947   41.0616   16.6399 H           1 AAH       0.0576
     27 H4        -22.0660   40.9935   18.9409 H           1 AAH       0.0676
     28 H5        -24.6920   42.1077   15.0502 H           1 AAH       0.0994
     29 H6        -26.2535   41.4152   15.4554 H           1 AAH       0.0994
     30 H7        -23.7813   39.9633   14.8698 H           1 AAH       0.2064
     31 H8        -24.6112   39.2023   12.8678 H           1 AAH       0.1014
     32 H9        -24.5477   40.9347   12.9159 H           1 AAH       0.1014
     33 H10       -25.3339   37.9202   14.6966 H           1 AAH       0.0815
     34 H11       -26.2592   38.8121   15.8907 H           1 AAH       0.0815
     35 H12       -24.6193   38.5659   17.5338 H           1 AAH       0.0318
     36 H13       -23.2867   38.4983   16.3692 H           1 AAH       0.0318
     37 H14       -23.8031   36.2154   15.7667 H           1 AAH       0.0285
     38 H15       -25.3026   36.2365   16.7109 H           1 AAH       0.0285
     39 H16       -23.9956   36.4480   18.8134 H           1 AAH       0.0430
     40 H17       -22.4849   36.4941   17.8975 H           1 AAH       0.0430
@<TRIPOS>BOND
     1     1     6  ar
     2     1     2  ar
     3     2     3  ar
     4     3    10   1
     5     3     4  ar
     6     4     5  ar
     7     5     6  ar
     8     6     7   1
     9     7     9   2
    10     7     8   2
    11    10    11   1
    12    11    17   1
    13    11    12   1
    14    12    13   1
    15    13    16  ar
    16    13    15  ar
    17    13    14  ar
    18    17    18   1
    19    18    19   1
    20    19    20   1
    21    20    21   1
    22    21    23  ar
    23    21    22  ar
    24     1    24   1
    25     2    25   1
    26     4    26   1
    27     5    27   1
    28    10    28   1
    29    10    29   1
    30    11    30   1
    31    12    31   1
    32    12    32   1
    33    17    33   1
    34    17    34   1
    35    18    35   1
    36    18    36   1
    37    19    37   1
    38    19    38   1
    39    20    39   1
    40    20    40   1
@<TRIPOS>SUBSTRUCTURE
     1  AAH      1

