@<TRIPOS>MOLECULE
1kel_ligand_051
    40    40
SMALL
GAST_HUCK
****
This file was generated by PARSER (from files_GN.cpp)

@<TRIPOS>ATOM
      1 C1        -28.0570   41.4786   14.6189 C.ar        1 AAH      -0.0251
      2 C2        -27.3820   40.4515   15.3059 C.ar        1 AAH      -0.0467
      3 C3        -26.2450   39.8268   14.7425 C.ar        1 AAH       0.0074
      4 C4        -25.8242   40.2489   13.4608 C.ar        1 AAH      -0.0467
      5 C5        -26.4892   41.2889   12.7854 C.ar        1 AAH      -0.0251
      6 C6        -27.6191   41.9299   13.3490 C.ar        1 AAH       0.1925
      7 N7        -28.2637   42.9302   12.6838 N.2         1 AAH       0.3095
      8 O8        -29.2396   43.4797   13.1257 O.2         1 AAH       0.1751
      9 O9        -27.8676   43.3675   11.5235 O.2         1 AAH       0.1751
     10 C10       -25.5562   38.7082   15.4606 C.3         1 AAH       0.0060
     11 N11       -24.1985   39.0818   16.0237 N.4         1 AAH       0.2598
     12 C12       -23.1199   39.0386   14.9707 C.3         1 AAH       0.0389
     13 P13       -21.5224   38.9733   15.4322 P.3         1 AAH       0.1070
     14 O14       -20.6984   39.8030   14.5836 O.co2       1 AAH      -0.5587
     15 O15       -21.3409   39.4290   16.7870 O.co2       1 AAH      -0.5587
     16 O16       -20.9901   37.6367   15.3183 O.co2       1 AAH      -0.5587
     17 C17       -23.9087   38.4356   17.3548 C.3         1 AAH      -0.0289
     18 C18       -24.0016   36.8804   17.5287 C.3         1 AAH      -0.0110
     19 C19       -22.7503   36.0904   17.0674 C.3         1 AAH      -0.0366
     20 C20       -22.7107   34.5582   17.3848 C.3         1 AAH       0.0004
     21 C21       -23.8711   33.9830   18.0812 C.2         1 AAH       0.0348
     22 O22       -25.1156   34.3066   17.6804 O.co2       1 AAH      -0.5690
     23 O23       -23.7282   32.9705   18.9714 O.co2       1 AAH      -0.5690
     24 H1        -28.8764   41.8969   15.0630 H           1 AAH       0.0676
     25 H2        -27.7328   40.1536   16.2214 H           1 AAH       0.0576
     26 H3        -25.0328   39.7913   13.0006 H           1 AAH       0.0576
     27 H4        -26.1431   41.5648   11.8665 H           1 AAH       0.0676
     28 H5        -25.4716   37.8505   14.7859 H           1 AAH       0.0994
     29 H6        -26.2282   38.3740   16.2547 H           1 AAH       0.0994
     30 H7        -24.2762   40.0766   16.2585 H           1 AAH       0.2064
     31 H8        -23.2046   39.9551   14.3876 H           1 AAH       0.1014
     32 H9        -23.3004   38.2101   14.2808 H           1 AAH       0.1014
     33 H10       -24.6277   38.8653   18.0605 H           1 AAH       0.0815
     34 H11       -22.9300   38.7624   17.7223 H           1 AAH       0.0815
     35 H12       -24.8866   36.4947   17.0253 H           1 AAH       0.0318
     36 H13       -24.1157   36.7020   18.5933 H           1 AAH       0.0318
     37 H14       -21.8718   36.5661   17.5129 H           1 AAH       0.0285
     38 H15       -22.6538   36.2110   15.9855 H           1 AAH       0.0285
     39 H16       -21.8122   34.3548   17.9723 H           1 AAH       0.0430
     40 H17       -22.5898   34.0086   16.4491 H           1 AAH       0.0430
@<TRIPOS>BOND
     1     1     6  ar
     2     1     2  ar
     3     2     3  ar
     4     3    10   1
     5     3     4  ar
     6     4     5  ar
     7     5     6  ar
     8     6     7   1
     9     7     9   2
    10     7     8   2
    11    10    11   1
    12    11    17   1
    13    11    12   1
    14    12    13   1
    15    13    16  ar
    16    13    15  ar
    17    13    14  ar
    18    17    18   1
    19    18    19   1
    20    19    20   1
    21    20    21   1
    22    21    23  ar
    23    21    22  ar
    24     1    24   1
    25     2    25   1
    26     4    26   1
    27     5    27   1
    28    10    28   1
    29    10    29   1
    30    11    30   1
    31    12    31   1
    32    12    32   1
    33    17    33   1
    34    17    34   1
    35    18    35   1
    36    18    36   1
    37    19    37   1
    38    19    38   1
    39    20    39   1
    40    20    40   1
@<TRIPOS>SUBSTRUCTURE
     1  AAH      1

