@<TRIPOS>MOLECULE
1kel_ligand_014
    40    40
SMALL
GAST_HUCK
****
This file was generated by PARSER (from files_GN.cpp)

@<TRIPOS>ATOM
      1 C1        -23.8149   42.6187   19.5480 C.ar        1 AAH      -0.0251
      2 C2        -23.6112   42.1128   18.2464 C.ar        1 AAH      -0.0467
      3 C3        -23.8752   40.7548   17.9463 C.ar        1 AAH       0.0074
      4 C4        -24.2920   39.9121   19.0008 C.ar        1 AAH      -0.0467
      5 C5        -24.4888   40.4190   20.3043 C.ar        1 AAH      -0.0251
      6 C6        -24.2670   41.7884   20.6040 C.ar        1 AAH       0.1925
      7 N7        -24.5049   42.2924   21.8488 N.2         1 AAH       0.3095
      8 O8        -24.3617   43.4588   22.1208 O.2         1 AAH       0.1751
      9 O9        -24.9497   41.5550   22.8331 O.2         1 AAH       0.1751
     10 C10       -23.8585   40.2662   16.5305 C.3         1 AAH       0.0060
     11 N11       -23.0716   39.0103   16.2696 N.4         1 AAH       0.2598
     12 C12       -21.5929   39.3138   16.2033 C.3         1 AAH       0.0389
     13 P13       -20.5490   38.0209   16.2857 P.3         1 AAH       0.1070
     14 O14       -21.1707   36.8588   16.8727 O.co2       1 AAH      -0.5587
     15 O15       -20.0004   37.6608   14.9961 O.co2       1 AAH      -0.5587
     16 O16       -19.4423   38.3951   17.1424 O.co2       1 AAH      -0.5587
     17 C17       -23.5418   38.1486   15.1105 C.3         1 AAH      -0.0289
     18 C18       -24.9647   38.3200   14.5023 C.3         1 AAH      -0.0110
     19 C19       -25.1408   39.6115   13.6500 C.3         1 AAH      -0.0366
     20 C20       -26.6105   40.0675   13.4143 C.3         1 AAH       0.0004
     21 C21       -27.3514   40.3211   14.6591 C.2         1 AAH       0.0348
     22 O22       -27.2076   41.5002   15.3083 O.co2       1 AAH      -0.5690
     23 O23       -27.9005   39.2891   15.3364 O.co2       1 AAH      -0.5690
     24 H1        -23.6655   43.6197   19.7054 H           1 AAH       0.0676
     25 H2        -23.3119   42.7592   17.5107 H           1 AAH       0.0576
     26 H3        -24.4892   38.9285   18.8225 H           1 AAH       0.0576
     27 H4        -24.8302   39.7827   21.0239 H           1 AAH       0.0676
     28 H5        -23.5133   41.0550   15.8502 H           1 AAH       0.0994
     29 H6        -24.9152   40.0837   16.3131 H           1 AAH       0.0994
     30 H7        -23.2070   38.4406   17.1086 H           1 AAH       0.2064
     31 H8        -21.3214   39.9752   17.0342 H           1 AAH       0.1014
     32 H9        -21.3678   39.8632   15.2866 H           1 AAH       0.1014
     33 H10       -23.4880   37.1240   15.4800 H           1 AAH       0.0815
     34 H11       -22.8322   38.2042   14.2890 H           1 AAH       0.0815
     35 H12       -25.7010   38.2732   15.3093 H           1 AAH       0.0318
     36 H13       -25.1701   37.4605   13.8406 H           1 AAH       0.0318
     37 H14       -24.6794   39.4513   12.6737 H           1 AAH       0.0285
     38 H15       -24.6090   40.4488   14.1023 H           1 AAH       0.0285
     39 H16       -27.1394   39.3152   12.8204 H           1 AAH       0.0430
     40 H17       -26.6053   40.9958   12.8351 H           1 AAH       0.0430
@<TRIPOS>BOND
     1     1     6  ar
     2     1     2  ar
     3     2     3  ar
     4     3    10   1
     5     3     4  ar
     6     4     5  ar
     7     5     6  ar
     8     6     7   1
     9     7     9   2
    10     7     8   2
    11    10    11   1
    12    11    17   1
    13    11    12   1
    14    12    13   1
    15    13    16  ar
    16    13    15  ar
    17    13    14  ar
    18    17    18   1
    19    18    19   1
    20    19    20   1
    21    20    21   1
    22    21    23  ar
    23    21    22  ar
    24     1    24   1
    25     2    25   1
    26     4    26   1
    27     5    27   1
    28    10    28   1
    29    10    29   1
    30    11    30   1
    31    12    31   1
    32    12    32   1
    33    17    33   1
    34    17    34   1
    35    18    35   1
    36    18    36   1
    37    19    37   1
    38    19    38   1
    39    20    39   1
    40    20    40   1
@<TRIPOS>SUBSTRUCTURE
     1  AAH      1

