@<TRIPOS>MOLECULE
1kel_ligand_030
    40    40
SMALL
GAST_HUCK
****
This file was generated by PARSER (from files_GN.cpp)

@<TRIPOS>ATOM
      1 C1        -23.3468   36.6381   17.7756 C.ar        1 AAH      -0.0251
      2 C2        -23.5153   38.0362   17.8438 C.ar        1 AAH      -0.0467
      3 C3        -22.5522   38.9095   17.2901 C.ar        1 AAH       0.0074
      4 C4        -21.4247   38.3420   16.6552 C.ar        1 AAH      -0.0467
      5 C5        -21.2532   36.9431   16.5964 C.ar        1 AAH      -0.0251
      6 C6        -22.1999   36.0613   17.1743 C.ar        1 AAH       0.1925
      7 N7        -21.9997   34.7073   17.1639 N.2         1 AAH       0.3095
      8 O8        -22.7605   33.9313   17.6795 O.2         1 AAH       0.1751
      9 O9        -20.9345   34.1625   16.6355 O.2         1 AAH       0.1751
     10 C10       -22.6713   40.3910   17.4533 C.3         1 AAH       0.0060
     11 N11       -23.6642   41.1603   16.6194 N.4         1 AAH       0.2598
     12 C12       -25.0937   41.0378   17.0696 C.3         1 AAH       0.0389
     13 P13       -26.0667   42.3595   16.7599 P.3         1 AAH       0.1070
     14 O14       -26.3776   42.6220   15.3797 O.co2       1 AAH      -0.5587
     15 O15       -27.3325   42.1807   17.4305 O.co2       1 AAH      -0.5587
     16 O16       -25.4940   43.5561   17.3122 O.co2       1 AAH      -0.5587
     17 C17       -23.4063   41.1353   15.1313 C.3         1 AAH      -0.0289
     18 C18       -24.3375   40.3639   14.1420 C.3         1 AAH      -0.0110
     19 C19       -24.3545   38.8083   14.2220 C.3         1 AAH      -0.0366
     20 C20       -25.7633   38.1534   14.1334 C.3         1 AAH       0.0004
     21 C21       -26.4467   38.0294   15.4286 C.2         1 AAH       0.0348
     22 O22       -26.0355   37.1353   16.3503 O.co2       1 AAH      -0.5690
     23 O23       -27.4509   38.8759   15.7524 O.co2       1 AAH      -0.5690
     24 H1        -24.0650   36.0384   18.1907 H           1 AAH       0.0676
     25 H2        -24.3360   38.4067   18.3276 H           1 AAH       0.0576
     26 H3        -20.7038   38.9356   16.2383 H           1 AAH       0.0576
     27 H4        -20.4150   36.5762   16.1398 H           1 AAH       0.0676
     28 H5        -21.6966   40.8405   17.2667 H           1 AAH       0.0994
     29 H6        -22.8519   40.5961   18.5119 H           1 AAH       0.0994
     30 H7        -23.4286   42.1236   16.8762 H           1 AAH       0.2064
     31 H8        -25.1250   40.9350   18.1557 H           1 AAH       0.1014
     32 H9        -25.5512   40.1421   16.6625 H           1 AAH       0.1014
     33 H10       -22.3805   40.8246   14.9281 H           1 AAH       0.0815
     34 H11       -23.4488   42.1792   14.8198 H           1 AAH       0.0815
     35 H12       -24.0187   40.6301   13.1273 H           1 AAH       0.0318
     36 H13       -25.3476   40.7501   14.2442 H           1 AAH       0.0318
     37 H14       -23.8738   38.4685   15.1278 H           1 AAH       0.0285
     38 H15       -23.7500   38.4193   13.4020 H           1 AAH       0.0285
     39 H16       -25.6643   37.1475   13.7222 H           1 AAH       0.0430
     40 H17       -26.3902   38.7193   13.4408 H           1 AAH       0.0430
@<TRIPOS>BOND
     1     1     6  ar
     2     1     2  ar
     3     2     3  ar
     4     3    10   1
     5     3     4  ar
     6     4     5  ar
     7     5     6  ar
     8     6     7   1
     9     7     9   2
    10     7     8   2
    11    10    11   1
    12    11    17   1
    13    11    12   1
    14    12    13   1
    15    13    16  ar
    16    13    15  ar
    17    13    14  ar
    18    17    18   1
    19    18    19   1
    20    19    20   1
    21    20    21   1
    22    21    23  ar
    23    21    22  ar
    24     1    24   1
    25     2    25   1
    26     4    26   1
    27     5    27   1
    28    10    28   1
    29    10    29   1
    30    11    30   1
    31    12    31   1
    32    12    32   1
    33    17    33   1
    34    17    34   1
    35    18    35   1
    36    18    36   1
    37    19    37   1
    38    19    38   1
    39    20    39   1
    40    20    40   1
@<TRIPOS>SUBSTRUCTURE
     1  AAH      1

