@<TRIPOS>MOLECULE
1kel_ligand_032
    40    40
SMALL
GAST_HUCK
****
This file was generated by PARSER (from files_GN.cpp)

@<TRIPOS>ATOM
      1 C1        -21.3014   36.3682   15.9114 C.ar        1 AAH      -0.0251
      2 C2        -21.5550   37.7116   15.5589 C.ar        1 AAH      -0.0467
      3 C3        -22.4814   38.4891   16.2929 C.ar        1 AAH       0.0074
      4 C4        -23.0930   37.8926   17.4171 C.ar        1 AAH      -0.0467
      5 C5        -22.8789   36.5402   17.7319 C.ar        1 AAH      -0.0251
      6 C6        -21.9815   35.7483   16.9872 C.ar        1 AAH       0.1925
      7 N7        -21.7826   34.4339   17.2975 N.2         1 AAH       0.3095
      8 O8        -21.0056   33.7412   16.6976 O.2         1 AAH       0.1751
      9 O9        -22.4430   33.8306   18.2477 O.2         1 AAH       0.1751
     10 C10       -22.8383   39.8768   15.8578 C.3         1 AAH       0.0060
     11 N11       -24.2987   40.1220   15.5357 N.4         1 AAH       0.2598
     12 C12       -25.2153   39.9430   16.7161 C.3         1 AAH       0.0389
     13 P13       -26.7454   40.5996   16.5647 P.3         1 AAH       0.1070
     14 O14       -26.8235   41.6871   15.6217 O.co2       1 AAH      -0.5587
     15 O15       -27.6717   39.5583   16.1921 O.co2       1 AAH      -0.5587
     16 O16       -27.1670   41.1142   17.8446 O.co2       1 AAH      -0.5587
     17 C17       -24.7621   39.4221   14.2813 C.3         1 AAH      -0.0289
     18 C18       -24.8043   40.3572   13.0380 C.3         1 AAH      -0.0110
     19 C19       -26.0845   41.2464   12.8952 C.3         1 AAH      -0.0366
     20 C20       -25.8498   42.7546   13.2030 C.3         1 AAH       0.0004
     21 C21       -27.0785   43.5611   13.0309 C.2         1 AAH       0.0348
     22 O22       -27.1097   44.5786   12.1388 O.co2       1 AAH      -0.5690
     23 O23       -28.1795   43.2926   13.7697 O.co2       1 AAH      -0.5690
     24 H1        -20.6216   35.8491   15.3527 H           1 AAH       0.0676
     25 H2        -21.0715   38.1148   14.7493 H           1 AAH       0.0576
     26 H3        -23.7101   38.4300   18.0307 H           1 AAH       0.0576
     27 H4        -23.4042   36.1313   18.5100 H           1 AAH       0.0676
     28 H5        -22.2653   40.1517   14.9702 H           1 AAH       0.0994
     29 H6        -22.5053   40.5721   16.6376 H           1 AAH       0.0994
     30 H7        -24.3493   41.1214   15.3352 H           1 AAH       0.2064
     31 H8        -24.7670   40.4207   17.5946 H           1 AAH       0.1014
     32 H9        -25.3263   38.8772   16.9527 H           1 AAH       0.1014
     33 H10       -25.7597   38.9959   14.3849 H           1 AAH       0.0815
     34 H11       -24.1129   38.5770   14.0310 H           1 AAH       0.0815
     35 H12       -24.7535   39.7129   12.1488 H           1 AAH       0.0318
     36 H13       -23.9140   40.9921   13.0162 H           1 AAH       0.0318
     37 H14       -26.8744   40.8582   13.5389 H           1 AAH       0.0285
     38 H15       -26.4454   41.1678   11.8627 H           1 AAH       0.0285
     39 H16       -25.0751   43.1389   12.5309 H           1 AAH       0.0430
     40 H17       -25.4971   42.8568   14.2307 H           1 AAH       0.0430
@<TRIPOS>BOND
     1     1     6  ar
     2     1     2  ar
     3     2     3  ar
     4     3    10   1
     5     3     4  ar
     6     4     5  ar
     7     5     6  ar
     8     6     7   1
     9     7     9   2
    10     7     8   2
    11    10    11   1
    12    11    17   1
    13    11    12   1
    14    12    13   1
    15    13    16  ar
    16    13    15  ar
    17    13    14  ar
    18    17    18   1
    19    18    19   1
    20    19    20   1
    21    20    21   1
    22    21    23  ar
    23    21    22  ar
    24     1    24   1
    25     2    25   1
    26     4    26   1
    27     5    27   1
    28    10    28   1
    29    10    29   1
    30    11    30   1
    31    12    31   1
    32    12    32   1
    33    17    33   1
    34    17    34   1
    35    18    35   1
    36    18    36   1
    37    19    37   1
    38    19    38   1
    39    20    39   1
    40    20    40   1
@<TRIPOS>SUBSTRUCTURE
     1  AAH      1

