@<TRIPOS>MOLECULE
1kel_ligand_041
    40    40
SMALL
GAST_HUCK
****
This file was generated by PARSER (from files_GN.cpp)

@<TRIPOS>ATOM
      1 C1        -23.4310   36.3019   15.4419 C.ar        1 AAH      -0.0251
      2 C2        -24.1858   37.4645   15.2025 C.ar        1 AAH      -0.0467
      3 C3        -24.7147   38.2147   16.2726 C.ar        1 AAH       0.0074
      4 C4        -24.5606   37.6948   17.5807 C.ar        1 AAH      -0.0467
      5 C5        -23.8421   36.5118   17.8112 C.ar        1 AAH      -0.0251
      6 C6        -23.2231   35.8079   16.7524 C.ar        1 AAH       0.1925
      7 N7        -22.4747   34.6907   16.9845 N.2         1 AAH       0.3095
      8 O8        -21.8825   34.1124   16.1132 O.2         1 AAH       0.1751
      9 O9        -22.3442   34.1677   18.1769 O.2         1 AAH       0.1751
     10 C10       -25.4201   39.5079   16.0427 C.3         1 AAH       0.0060
     11 N11       -24.6163   40.7072   15.6026 N.4         1 AAH       0.2598
     12 C12       -24.2907   40.8327   14.1339 C.3         1 AAH       0.0389
     13 P13       -25.6029   40.9836   13.1163 P.3         1 AAH       0.1070
     14 O14       -26.8281   41.2911   13.8203 O.co2       1 AAH      -0.5587
     15 O15       -25.3938   42.0443   12.1575 O.co2       1 AAH      -0.5587
     16 O16       -25.8058   39.7732   12.3567 O.co2       1 AAH      -0.5587
     17 C17       -23.4998   41.1203   16.5356 C.3         1 AAH      -0.0289
     18 C18       -22.3652   40.1500   16.9943 C.3         1 AAH      -0.0110
     19 C19       -21.6024   39.3739   15.8828 C.3         1 AAH      -0.0366
     20 C20       -20.6403   38.2876   16.4561 C.3         1 AAH       0.0004
     21 C21       -19.9580   37.5224   15.4042 C.2         1 AAH       0.0348
     22 O22       -19.4723   36.2879   15.6692 O.co2       1 AAH      -0.5690
     23 O23       -19.6409   38.0956   14.2201 O.co2       1 AAH      -0.5690
     24 H1        -23.0302   35.8087   14.6398 H           1 AAH       0.0676
     25 H2        -24.3503   37.7596   14.2370 H           1 AAH       0.0576
     26 H3        -24.9498   38.1937   18.3820 H           1 AAH       0.0576
     27 H4        -23.7513   36.1771   18.7753 H           1 AAH       0.0676
     28 H5        -25.9259   39.8129   16.9635 H           1 AAH       0.0994
     29 H6        -26.2246   39.3180   15.3314 H           1 AAH       0.0994
     30 H7        -25.2827   41.4711   15.7319 H           1 AAH       0.2064
     31 H8        -23.6939   39.9978   13.7872 H           1 AAH       0.1014
     32 H9        -23.6944   41.7379   13.9715 H           1 AAH       0.1014
     33 H10       -23.9872   41.4664   17.4529 H           1 AAH       0.0815
     34 H11       -23.0197   42.0137   16.1264 H           1 AAH       0.0815
     35 H12       -22.7873   39.4361   17.6986 H           1 AAH       0.0318
     36 H13       -21.6352   40.7355   17.5600 H           1 AAH       0.0318
     37 H14       -21.0389   40.0819   15.2725 H           1 AAH       0.0285
     38 H15       -22.3125   38.8727   15.2390 H           1 AAH       0.0285
     39 H16       -21.2208   37.5842   17.0571 H           1 AAH       0.0430
     40 H17       -19.8912   38.7423   17.1063 H           1 AAH       0.0430
@<TRIPOS>BOND
     1     1     6  ar
     2     1     2  ar
     3     2     3  ar
     4     3    10   1
     5     3     4  ar
     6     4     5  ar
     7     5     6  ar
     8     6     7   1
     9     7     9   2
    10     7     8   2
    11    10    11   1
    12    11    17   1
    13    11    12   1
    14    12    13   1
    15    13    16  ar
    16    13    15  ar
    17    13    14  ar
    18    17    18   1
    19    18    19   1
    20    19    20   1
    21    20    21   1
    22    21    23  ar
    23    21    22  ar
    24     1    24   1
    25     2    25   1
    26     4    26   1
    27     5    27   1
    28    10    28   1
    29    10    29   1
    30    11    30   1
    31    12    31   1
    32    12    32   1
    33    17    33   1
    34    17    34   1
    35    18    35   1
    36    18    36   1
    37    19    37   1
    38    19    38   1
    39    20    39   1
    40    20    40   1
@<TRIPOS>SUBSTRUCTURE
     1  AAH      1

