@<TRIPOS>MOLECULE
1kel_ligand_008
    40    40
SMALL
GAST_HUCK
****
This file was generated by PARSER (from files_GN.cpp)

@<TRIPOS>ATOM
      1 C1        -26.0890   41.6627   17.6707 C.ar        1 AAH      -0.0251
      2 C2        -24.9737   41.2488   16.9158 C.ar        1 AAH      -0.0467
      3 C3        -23.7381   40.9549   17.5382 C.ar        1 AAH       0.0074
      4 C4        -23.6158   41.2289   18.9193 C.ar        1 AAH      -0.0467
      5 C5        -24.7171   41.7029   19.6648 C.ar        1 AAH      -0.0251
      6 C6        -25.9848   41.8981   19.0614 C.ar        1 AAH       0.1925
      7 N7        -27.0632   42.3167   19.7881 N.2         1 AAH       0.3095
      8 O8        -28.1546   42.4596   19.3070 O.2         1 AAH       0.1751
      9 O9        -26.9664   42.6349   21.0514 O.2         1 AAH       0.1751
     10 C10       -22.5884   40.4401   16.7312 C.3         1 AAH       0.0060
     11 N11       -22.5842   38.9873   16.3090 N.4         1 AAH       0.2598
     12 C12       -21.3731   38.6551   15.4515 C.3         1 AAH       0.0389
     13 P13       -20.2601   37.6568   16.1742 P.3         1 AAH       0.1070
     14 O14       -20.8535   36.5057   16.8121 O.co2       1 AAH      -0.5587
     15 O15       -19.3971   37.0931   15.1543 O.co2       1 AAH      -0.5587
     16 O16       -19.4233   38.3527   17.1199 O.co2       1 AAH      -0.5587
     17 C17       -23.8885   38.4624   15.7414 C.3         1 AAH      -0.0289
     18 C18       -24.7261   37.6371   16.7613 C.3         1 AAH      -0.0110
     19 C19       -24.3059   36.1367   16.8966 C.3         1 AAH      -0.0366
     20 C20       -23.4480   35.8145   18.1386 C.3         1 AAH       0.0004
     21 C21       -23.0859   34.3843   18.2023 C.2         1 AAH       0.0348
     22 O22       -21.8674   33.9436   17.8174 O.co2       1 AAH      -0.5690
     23 O23       -23.9606   33.4688   18.6649 O.co2       1 AAH      -0.5690
     24 H1        -26.9780   41.8025   17.1875 H           1 AAH       0.0676
     25 H2        -25.0754   41.1601   15.9017 H           1 AAH       0.0576
     26 H3        -22.7223   41.0966   19.3942 H           1 AAH       0.0576
     27 H4        -24.5788   41.8938   20.6626 H           1 AAH       0.0676
     28 H5        -21.6766   40.5957   17.3129 H           1 AAH       0.0994
     29 H6        -22.4972   41.0873   15.8529 H           1 AAH       0.0994
     30 H7        -22.4541   38.4733   17.1800 H           1 AAH       0.2064
     31 H8        -20.8389   39.5562   15.1411 H           1 AAH       0.1014
     32 H9        -21.6461   38.1694   14.5157 H           1 AAH       0.1014
     33 H10       -23.7492   37.8145   14.8687 H           1 AAH       0.0815
     34 H11       -24.5031   39.2905   15.3656 H           1 AAH       0.0815
     35 H12       -25.7667   37.6545   16.4205 H           1 AAH       0.0318
     36 H13       -24.7154   38.1276   17.7371 H           1 AAH       0.0318
     37 H14       -23.7588   35.8205   16.0101 H           1 AAH       0.0285
     38 H15       -25.2081   35.5271   16.9447 H           1 AAH       0.0285
     39 H16       -24.0128   36.0538   19.0443 H           1 AAH       0.0430
     40 H17       -22.5390   36.4267   18.1322 H           1 AAH       0.0430
@<TRIPOS>BOND
     1     1     6  ar
     2     1     2  ar
     3     2     3  ar
     4     3    10   1
     5     3     4  ar
     6     4     5  ar
     7     5     6  ar
     8     6     7   1
     9     7     9   2
    10     7     8   2
    11    10    11   1
    12    11    17   1
    13    11    12   1
    14    12    13   1
    15    13    16  ar
    16    13    15  ar
    17    13    14  ar
    18    17    18   1
    19    18    19   1
    20    19    20   1
    21    20    21   1
    22    21    23  ar
    23    21    22  ar
    24     1    24   1
    25     2    25   1
    26     4    26   1
    27     5    27   1
    28    10    28   1
    29    10    29   1
    30    11    30   1
    31    12    31   1
    32    12    32   1
    33    17    33   1
    34    17    34   1
    35    18    35   1
    36    18    36   1
    37    19    37   1
    38    19    38   1
    39    20    39   1
    40    20    40   1
@<TRIPOS>SUBSTRUCTURE
     1  AAH      1

