@<TRIPOS>MOLECULE
1kel_ligand_005
    40    40
SMALL
GAST_HUCK
****
This file was generated by PARSER (from files_GN.cpp)

@<TRIPOS>ATOM
      1 C1        -24.5702   43.3787   18.4988 C.ar        1 AAH      -0.0251
      2 C2        -24.3334   42.9019   17.1947 C.ar        1 AAH      -0.0467
      3 C3        -23.4975   41.7831   16.9662 C.ar        1 AAH       0.0074
      4 C4        -22.8189   41.2409   18.0840 C.ar        1 AAH      -0.0467
      5 C5        -23.0417   41.7248   19.3850 C.ar        1 AAH      -0.0251
      6 C6        -23.9457   42.7865   19.6241 C.ar        1 AAH       0.1925
      7 N7        -24.1906   43.2171   20.8975 N.2         1 AAH       0.3095
      8 O8        -24.9731   44.1010   21.1403 O.2         1 AAH       0.1751
      9 O9        -23.6183   42.6807   21.9414 O.2         1 AAH       0.1751
     10 C10       -23.2792   41.2354   15.5904 C.3         1 AAH       0.0060
     11 N11       -23.7307   39.8307   15.2792 N.4         1 AAH       0.2598
     12 C12       -25.1188   39.7125   14.7047 C.3         1 AAH       0.0389
     13 P13       -26.4554   40.0280   15.6631 P.3         1 AAH       0.1070
     14 O14       -27.4692   39.0401   15.4174 O.co2       1 AAH      -0.5587
     15 O15       -26.2400   39.9871   17.0875 O.co2       1 AAH      -0.5587
     16 O16       -27.0533   41.2948   15.3199 O.co2       1 AAH      -0.5587
     17 C17       -23.3654   38.7859   16.2974 C.3         1 AAH      -0.0289
     18 C18       -23.3286   37.3280   15.7722 C.3         1 AAH      -0.0110
     19 C19       -23.1151   36.2715   16.9017 C.3         1 AAH      -0.0366
     20 C20       -21.9152   35.3168   16.6353 C.3         1 AAH       0.0004
     21 C21       -21.9118   34.1049   17.4646 C.2         1 AAH       0.0348
     22 O22       -22.9484   33.7832   18.2678 O.co2       1 AAH      -0.5690
     23 O23       -20.8479   33.2719   17.4293 O.co2       1 AAH      -0.5690
     24 H1        -25.2195   44.1565   18.6213 H           1 AAH       0.0676
     25 H2        -24.8015   43.3596   16.4078 H           1 AAH       0.0576
     26 H3        -22.1219   40.5047   17.9631 H           1 AAH       0.0576
     27 H4        -22.5189   41.2969   20.1524 H           1 AAH       0.0676
     28 H5        -22.2080   41.2876   15.3835 H           1 AAH       0.0994
     29 H6        -23.7310   41.9100   14.8593 H           1 AAH       0.0994
     30 H7        -23.1363   39.5880   14.4846 H           1 AAH       0.2064
     31 H8        -25.2393   38.7100   14.2930 H           1 AAH       0.1014
     32 H9        -25.1743   40.3705   13.8337 H           1 AAH       0.1014
     33 H10       -24.0203   38.8445   17.1697 H           1 AAH       0.0815
     34 H11       -22.3424   38.9759   16.6245 H           1 AAH       0.0815
     35 H12       -22.5207   37.2750   15.0340 H           1 AAH       0.0318
     36 H13       -24.2585   37.0765   15.2650 H           1 AAH       0.0318
     37 H14       -24.0331   35.6833   16.9917 H           1 AAH       0.0285
     38 H15       -22.9430   36.7611   17.8679 H           1 AAH       0.0285
     39 H16       -20.9922   35.8732   16.8379 H           1 AAH       0.0430
     40 H17       -21.9034   35.0145   15.5853 H           1 AAH       0.0430
@<TRIPOS>BOND
     1     1     6  ar
     2     1     2  ar
     3     2     3  ar
     4     3    10   1
     5     3     4  ar
     6     4     5  ar
     7     5     6  ar
     8     6     7   1
     9     7     9   2
    10     7     8   2
    11    10    11   1
    12    11    17   1
    13    11    12   1
    14    12    13   1
    15    13    16  ar
    16    13    15  ar
    17    13    14  ar
    18    17    18   1
    19    18    19   1
    20    19    20   1
    21    20    21   1
    22    21    23  ar
    23    21    22  ar
    24     1    24   1
    25     2    25   1
    26     4    26   1
    27     5    27   1
    28    10    28   1
    29    10    29   1
    30    11    30   1
    31    12    31   1
    32    12    32   1
    33    17    33   1
    34    17    34   1
    35    18    35   1
    36    18    36   1
    37    19    37   1
    38    19    38   1
    39    20    39   1
    40    20    40   1
@<TRIPOS>SUBSTRUCTURE
     1  AAH      1

