@<TRIPOS>MOLECULE
1kel_ligand_007
    40    40
SMALL
GAST_HUCK
****
This file was generated by PARSER (from files_GN.cpp)

@<TRIPOS>ATOM
      1 C1        -23.1920   36.3618   17.8199 C.ar        1 AAH      -0.0251
      2 C2        -23.5535   37.7189   17.7613 C.ar        1 AAH      -0.0467
      3 C3        -22.7209   38.6575   17.1062 C.ar        1 AAH       0.0074
      4 C4        -21.4920   38.2032   16.5722 C.ar        1 AAH      -0.0467
      5 C5        -21.1345   36.8456   16.6342 C.ar        1 AAH      -0.0251
      6 C6        -21.9720   35.8947   17.2663 C.ar        1 AAH       0.1925
      7 N7        -21.6146   34.5801   17.3347 N.2         1 AAH       0.3095
      8 O8        -22.3012   33.7534   17.8756 O.2         1 AAH       0.1751
      9 O9        -20.4980   34.1366   16.8305 O.2         1 AAH       0.1751
     10 C10       -23.0904   40.1030   17.0416 C.3         1 AAH       0.0060
     11 N11       -24.1911   40.5433   16.0946 N.4         1 AAH       0.2598
     12 C12       -24.6685   39.5371   15.0667 C.3         1 AAH       0.0389
     13 P13       -26.1473   39.8162   14.3298 P.3         1 AAH       0.1070
     14 O14       -27.2174   38.9861   14.8502 O.co2       1 AAH      -0.5587
     15 O15       -26.6039   41.1837   14.2544 O.co2       1 AAH      -0.5587
     16 O16       -25.9884   39.3694   12.9658 O.co2       1 AAH      -0.5587
     17 C17       -23.8768   41.9238   15.5485 C.3         1 AAH      -0.0289
     18 C18       -22.9467   42.0200   14.2887 C.3         1 AAH      -0.0110
     19 C19       -23.7210   42.0688   12.9262 C.3         1 AAH      -0.0366
     20 C20       -22.9291   42.7432   11.7569 C.3         1 AAH       0.0004
     21 C21       -23.8075   43.5209   10.8465 C.2         1 AAH       0.0348
     22 O22       -24.6156   44.4842   11.3655 O.co2       1 AAH      -0.5690
     23 O23       -23.7845   43.3104    9.5023 O.co2       1 AAH      -0.5690
     24 H1        -23.8274   35.7157   18.2922 H           1 AAH       0.0676
     25 H2        -24.4426   38.0236   18.1740 H           1 AAH       0.0576
     26 H3        -20.8541   38.8573   16.1018 H           1 AAH       0.0576
     27 H4        -20.2404   36.5637   16.2323 H           1 AAH       0.0676
     28 H5        -22.1706   40.6717   16.8565 H           1 AAH       0.0994
     29 H6        -23.4125   40.3976   18.0484 H           1 AAH       0.0994
     30 H7        -25.0017   40.7071   16.6985 H           1 AAH       0.2064
     31 H8        -24.7895   38.5689   15.5618 H           1 AAH       0.1014
     32 H9        -23.8814   39.4045   14.3146 H           1 AAH       0.1014
     33 H10       -23.4000   42.5161   16.3408 H           1 AAH       0.0815
     34 H11       -24.8023   42.4668   15.3591 H           1 AAH       0.0815
     35 H12       -22.2468   41.1809   14.2739 H           1 AAH       0.0318
     36 H13       -22.3511   42.9393   14.3657 H           1 AAH       0.0318
     37 H14       -24.6636   42.6145   13.0736 H           1 AAH       0.0285
     38 H15       -23.9736   41.0575   12.6094 H           1 AAH       0.0285
     39 H16       -22.4078   41.9707   11.1836 H           1 AAH       0.0430
     40 H17       -22.1632   43.4352   12.1491 H           1 AAH       0.0430
@<TRIPOS>BOND
     1     1     6  ar
     2     1     2  ar
     3     2     3  ar
     4     3    10   1
     5     3     4  ar
     6     4     5  ar
     7     5     6  ar
     8     6     7   1
     9     7     9   2
    10     7     8   2
    11    10    11   1
    12    11    17   1
    13    11    12   1
    14    12    13   1
    15    13    16  ar
    16    13    15  ar
    17    13    14  ar
    18    17    18   1
    19    18    19   1
    20    19    20   1
    21    20    21   1
    22    21    23  ar
    23    21    22  ar
    24     1    24   1
    25     2    25   1
    26     4    26   1
    27     5    27   1
    28    10    28   1
    29    10    29   1
    30    11    30   1
    31    12    31   1
    32    12    32   1
    33    17    33   1
    34    17    34   1
    35    18    35   1
    36    18    36   1
    37    19    37   1
    38    19    38   1
    39    20    39   1
    40    20    40   1
@<TRIPOS>SUBSTRUCTURE
     1  AAH      1

