@<TRIPOS>MOLECULE
1kel_ligand_006
    40    40
SMALL
GAST_HUCK
****
This file was generated by PARSER (from files_GN.cpp)

@<TRIPOS>ATOM
      1 C1        -23.7784   36.0676   16.7858 C.ar        1 AAH      -0.0251
      2 C2        -23.8329   37.3092   16.1283 C.ar        1 AAH      -0.0467
      3 C3        -22.6544   37.9394   15.6762 C.ar        1 AAH       0.0074
      4 C4        -21.4353   37.2295   15.7986 C.ar        1 AAH      -0.0467
      5 C5        -21.3877   35.9689   16.4229 C.ar        1 AAH      -0.0251
      6 C6        -22.5539   35.3798   16.9718 C.ar        1 AAH       0.1925
      7 N7        -22.5026   34.1950   17.6452 N.2         1 AAH       0.3095
      8 O8        -23.4680   33.6906   18.1595 O.2         1 AAH       0.1751
      9 O9        -21.3972   33.5206   17.7843 O.2         1 AAH       0.1751
     10 C10       -22.6805   39.3473   15.1706 C.3         1 AAH       0.0060
     11 N11       -23.3897   40.4018   15.9975 N.4         1 AAH       0.2598
     12 C12       -22.9726   40.3616   17.4580 C.3         1 AAH       0.0389
     13 P13       -23.8048   41.1538   18.6683 P.3         1 AAH       0.1070
     14 O14       -25.0856   40.5334   18.8956 O.co2       1 AAH      -0.5587
     15 O15       -23.0997   40.9651   19.9106 O.co2       1 AAH      -0.5587
     16 O16       -23.9392   42.5790   18.5015 O.co2       1 AAH      -0.5587
     17 C17       -24.8551   40.5677   15.6592 C.3         1 AAH      -0.0289
     18 C18       -25.3249   42.0629   15.6359 C.3         1 AAH      -0.0110
     19 C19       -26.6487   42.3205   16.4182 C.3         1 AAH      -0.0366
     20 C20       -26.8840   43.8186   16.7695 C.3         1 AAH       0.0004
     21 C21       -27.8123   44.0782   17.8896 C.2         1 AAH       0.0348
     22 O22       -27.8645   45.3251   18.4144 O.co2       1 AAH      -0.5690
     23 O23       -28.5004   43.0999   18.5178 O.co2       1 AAH      -0.5690
     24 H1        -24.6487   35.6789   17.1620 H           1 AAH       0.0676
     25 H2        -24.7382   37.7647   16.0330 H           1 AAH       0.0576
     26 H3        -20.5615   37.6404   15.4515 H           1 AAH       0.0576
     27 H4        -20.4806   35.5068   16.5113 H           1 AAH       0.0676
     28 H5        -23.0822   39.3161   14.1555 H           1 AAH       0.0994
     29 H6        -21.6513   39.7049   15.0563 H           1 AAH       0.0994
     30 H7        -22.9774   41.2715   15.6511 H           1 AAH       0.2064
     31 H8        -21.9441   40.7319   17.5039 H           1 AAH       0.1014
     32 H9        -22.9402   39.3303   17.8046 H           1 AAH       0.1014
     33 H10       -25.4501   39.9781   16.3556 H           1 AAH       0.0815
     34 H11       -25.0890   40.1647   14.6659 H           1 AAH       0.0815
     35 H12       -25.4601   42.3971   14.5990 H           1 AAH       0.0318
     36 H13       -24.5340   42.6864   16.0524 H           1 AAH       0.0318
     37 H14       -26.6183   41.7524   17.3445 H           1 AAH       0.0285
     38 H15       -27.4945   41.9451   15.8359 H           1 AAH       0.0285
     39 H16       -27.2661   44.3368   15.8861 H           1 AAH       0.0430
     40 H17       -25.9318   44.2803   17.0374 H           1 AAH       0.0430
@<TRIPOS>BOND
     1     1     6  ar
     2     1     2  ar
     3     2     3  ar
     4     3    10   1
     5     3     4  ar
     6     4     5  ar
     7     5     6  ar
     8     6     7   1
     9     7     9   2
    10     7     8   2
    11    10    11   1
    12    11    17   1
    13    11    12   1
    14    12    13   1
    15    13    16  ar
    16    13    15  ar
    17    13    14  ar
    18    17    18   1
    19    18    19   1
    20    19    20   1
    21    20    21   1
    22    21    23  ar
    23    21    22  ar
    24     1    24   1
    25     2    25   1
    26     4    26   1
    27     5    27   1
    28    10    28   1
    29    10    29   1
    30    11    30   1
    31    12    31   1
    32    12    32   1
    33    17    33   1
    34    17    34   1
    35    18    35   1
    36    18    36   1
    37    19    37   1
    38    19    38   1
    39    20    39   1
    40    20    40   1
@<TRIPOS>SUBSTRUCTURE
     1  AAH      1

