@<TRIPOS>MOLECULE
1kel_ligand_050
    40    40
SMALL
GAST_HUCK
****
This file was generated by PARSER (from files_GN.cpp)

@<TRIPOS>ATOM
      1 C1        -24.8065   43.9257   17.7684 C.ar        1 AAH      -0.0251
      2 C2        -25.2775   42.9236   16.9023 C.ar        1 AAH      -0.0467
      3 C3        -26.1647   41.9279   17.3664 C.ar        1 AAH       0.0074
      4 C4        -26.5712   41.9638   18.7179 C.ar        1 AAH      -0.0467
      5 C5        -26.0956   42.9656   19.5827 C.ar        1 AAH      -0.0251
      6 C6        -25.2027   43.9686   19.1290 C.ar        1 AAH       0.1925
      7 N7        -24.7421   44.9353   19.9744 N.2         1 AAH       0.3095
      8 O8        -23.9796   45.7974   19.6220 O.2         1 AAH       0.1751
      9 O9        -25.0931   44.9901   21.2314 O.2         1 AAH       0.1751
     10 C10       -26.6373   40.8625   16.4426 C.3         1 AAH       0.0060
     11 N11       -25.5442   40.3286   15.5568 N.4         1 AAH       0.2598
     12 C12       -26.0356   39.3718   14.5044 C.3         1 AAH       0.0389
     13 P13       -26.8589   40.1260   13.2693 P.3         1 AAH       0.1070
     14 O14       -26.3526   41.4595   13.0666 O.co2       1 AAH      -0.5587
     15 O15       -26.6537   39.4028   12.0408 O.co2       1 AAH      -0.5587
     16 O16       -28.2793   40.2020   13.4959 O.co2       1 AAH      -0.5587
     17 C17       -24.3338   39.8310   16.3008 C.3         1 AAH      -0.0289
     18 C18       -24.5255   38.5690   17.1922 C.3         1 AAH      -0.0110
     19 C19       -23.3976   37.5198   16.9908 C.3         1 AAH      -0.0366
     20 C20       -23.6934   36.1471   17.6534 C.3         1 AAH       0.0004
     21 C21       -22.5419   35.2254   17.6268 C.2         1 AAH       0.0348
     22 O22       -22.5548   34.0722   18.3349 O.co2       1 AAH      -0.5690
     23 O23       -21.4326   35.5341   16.9171 O.co2       1 AAH      -0.5690
     24 H1        -24.1646   44.6280   17.3926 H           1 AAH       0.0676
     25 H2        -24.9671   42.9234   15.9271 H           1 AAH       0.0576
     26 H3        -27.2094   41.2539   19.0858 H           1 AAH       0.0576
     27 H4        -26.4106   42.9522   20.5555 H           1 AAH       0.0676
     28 H5        -27.4306   41.3098   15.8407 H           1 AAH       0.0994
     29 H6        -27.1063   40.0423   16.9917 H           1 AAH       0.0994
     30 H7        -25.2016   41.1402   15.0377 H           1 AAH       0.2064
     31 H8        -26.6750   38.6005   14.9418 H           1 AAH       0.1014
     32 H9        -25.1997   38.8566   14.0240 H           1 AAH       0.1014
     33 H10       -23.9403   40.6391   16.9236 H           1 AAH       0.0815
     34 H11       -23.5530   39.6180   15.5641 H           1 AAH       0.0815
     35 H12       -25.4874   38.1074   16.9582 H           1 AAH       0.0318
     36 H13       -24.5378   38.8626   18.2438 H           1 AAH       0.0318
     37 H14       -22.4758   37.9155   17.4271 H           1 AAH       0.0285
     38 H15       -23.2183   37.3720   15.9214 H           1 AAH       0.0285
     39 H16       -24.5510   35.6836   17.1571 H           1 AAH       0.0430
     40 H17       -23.9661   36.3113   18.6994 H           1 AAH       0.0430
@<TRIPOS>BOND
     1     1     6  ar
     2     1     2  ar
     3     2     3  ar
     4     3    10   1
     5     3     4  ar
     6     4     5  ar
     7     5     6  ar
     8     6     7   1
     9     7     9   2
    10     7     8   2
    11    10    11   1
    12    11    17   1
    13    11    12   1
    14    12    13   1
    15    13    16  ar
    16    13    15  ar
    17    13    14  ar
    18    17    18   1
    19    18    19   1
    20    19    20   1
    21    20    21   1
    22    21    23  ar
    23    21    22  ar
    24     1    24   1
    25     2    25   1
    26     4    26   1
    27     5    27   1
    28    10    28   1
    29    10    29   1
    30    11    30   1
    31    12    31   1
    32    12    32   1
    33    17    33   1
    34    17    34   1
    35    18    35   1
    36    18    36   1
    37    19    37   1
    38    19    38   1
    39    20    39   1
    40    20    40   1
@<TRIPOS>SUBSTRUCTURE
     1  AAH      1

