@<TRIPOS>MOLECULE
1kel_ligand_039
    40    40
SMALL
GAST_HUCK
****
This file was generated by PARSER (from files_GN.cpp)

@<TRIPOS>ATOM
      1 C1        -27.2957   40.3829   15.2479 C.ar        1 AAH      -0.0251
      2 C2        -26.4263   40.1052   16.3209 C.ar        1 AAH      -0.0467
      3 C3        -25.4700   39.0639   16.2311 C.ar        1 AAH       0.0074
      4 C4        -25.4894   38.2448   15.0805 C.ar        1 AAH      -0.0467
      5 C5        -26.3504   38.5287   14.0102 C.ar        1 AAH      -0.0251
      6 C6        -27.2372   39.6319   14.0456 C.ar        1 AAH       0.1925
      7 N7        -28.0023   39.9457   12.9580 N.2         1 AAH       0.3095
      8 O8        -28.7606   40.8822   12.9426 O.2         1 AAH       0.1751
      9 O9        -27.9010   39.2960   11.8235 O.2         1 AAH       0.1751
     10 C10       -24.4446   38.8477   17.2937 C.3         1 AAH       0.0060
     11 N11       -23.0536   39.3582   17.0238 N.4         1 AAH       0.2598
     12 C12       -22.9683   40.8379   16.7466 C.3         1 AAH       0.0389
     13 P13       -23.4623   41.4630   15.2697 P.3         1 AAH       0.1070
     14 O14       -24.6044   42.3278   15.4181 O.co2       1 AAH      -0.5587
     15 O15       -22.4373   42.2833   14.6709 O.co2       1 AAH      -0.5587
     16 O16       -23.8087   40.4782   14.2788 O.co2       1 AAH      -0.5587
     17 C17       -22.1871   38.4909   16.1493 C.3         1 AAH      -0.0289
     18 C18       -21.7193   37.1514   16.8057 C.3         1 AAH      -0.0110
     19 C19       -21.9381   35.9045   15.9030 C.3         1 AAH      -0.0366
     20 C20       -20.9086   34.7504   16.0705 C.3         1 AAH       0.0004
     21 C21       -21.1559   33.7535   17.1346 C.2         1 AAH       0.0348
     22 O22       -22.2289   33.7967   17.9537 O.co2       1 AAH      -0.5690
     23 O23       -20.3403   32.6732   17.2225 O.co2       1 AAH      -0.5690
     24 H1        -27.9503   41.1666   15.3412 H           1 AAH       0.0676
     25 H2        -26.4633   40.7010   17.1506 H           1 AAH       0.0576
     26 H3        -24.8669   37.4411   15.0030 H           1 AAH       0.0576
     27 H4        -26.3210   37.9183   13.1918 H           1 AAH       0.0676
     28 H5        -24.4181   37.7820   17.5253 H           1 AAH       0.0994
     29 H6        -24.7797   39.3267   18.2193 H           1 AAH       0.0994
     30 H7        -22.6033   39.2756   17.9353 H           1 AAH       0.2064
     31 H8        -21.9284   41.1176   16.8960 H           1 AAH       0.1014
     32 H9        -23.5131   41.3753   17.5298 H           1 AAH       0.1014
     33 H10       -21.2768   39.0383   15.8742 H           1 AAH       0.0815
     34 H11       -22.6988   38.2896   15.2051 H           1 AAH       0.0815
     35 H12       -22.2315   36.9826   17.7563 H           1 AAH       0.0318
     36 H13       -20.6545   37.2322   17.0384 H           1 AAH       0.0318
     37 H14       -21.8614   36.2245   14.8619 H           1 AAH       0.0285
     38 H15       -22.9498   35.5137   16.0550 H           1 AAH       0.0285
     39 H16       -19.9177   35.1804   16.2337 H           1 AAH       0.0430
     40 H17       -20.8733   34.1927   15.1282 H           1 AAH       0.0430
@<TRIPOS>BOND
     1     1     6  ar
     2     1     2  ar
     3     2     3  ar
     4     3    10   1
     5     3     4  ar
     6     4     5  ar
     7     5     6  ar
     8     6     7   1
     9     7     9   2
    10     7     8   2
    11    10    11   1
    12    11    17   1
    13    11    12   1
    14    12    13   1
    15    13    16  ar
    16    13    15  ar
    17    13    14  ar
    18    17    18   1
    19    18    19   1
    20    19    20   1
    21    20    21   1
    22    21    23  ar
    23    21    22  ar
    24     1    24   1
    25     2    25   1
    26     4    26   1
    27     5    27   1
    28    10    28   1
    29    10    29   1
    30    11    30   1
    31    12    31   1
    32    12    32   1
    33    17    33   1
    34    17    34   1
    35    18    35   1
    36    18    36   1
    37    19    37   1
    38    19    38   1
    39    20    39   1
    40    20    40   1
@<TRIPOS>SUBSTRUCTURE
     1  AAH      1

