@<TRIPOS>MOLECULE
1kel_ligand_019
    40    40
SMALL
GAST_HUCK
****
This file was generated by PARSER (from files_GN.cpp)

@<TRIPOS>ATOM
      1 C1        -20.9115   38.1742   15.6661 C.ar        1 AAH      -0.0251
      2 C2        -21.7755   39.2664   15.8824 C.ar        1 AAH      -0.0467
      3 C3        -22.8747   39.1542   16.7639 C.ar        1 AAH       0.0074
      4 C4        -23.0740   37.9274   17.4358 C.ar        1 AAH      -0.0467
      5 C5        -22.1884   36.8510   17.2363 C.ar        1 AAH      -0.0251
      6 C6        -21.0900   36.9492   16.3509 C.ar        1 AAH       0.1925
      7 N7        -20.2301   35.9002   16.1735 N.2         1 AAH       0.3095
      8 O8        -19.2927   35.9546   15.4205 O.2         1 AAH       0.1751
      9 O9        -20.3448   34.7771   16.8296 O.2         1 AAH       0.1751
     10 C10       -23.7735   40.3184   17.0100 C.3         1 AAH       0.0060
     11 N11       -24.3097   40.9904   15.7782 N.4         1 AAH       0.2598
     12 C12       -24.9108   42.3539   16.0053 C.3         1 AAH       0.0389
     13 P13       -25.8748   42.7057   17.3343 P.3         1 AAH       0.1070
     14 O14       -27.1727   42.0798   17.4017 O.co2       1 AAH      -0.5587
     15 O15       -25.1971   42.4159   18.5703 O.co2       1 AAH      -0.5587
     16 O16       -26.1076   44.1252   17.3799 O.co2       1 AAH      -0.5587
     17 C17       -25.0145   40.0906   14.7949 C.3         1 AAH      -0.0289
     18 C18       -26.5666   39.9479   14.8578 C.3         1 AAH      -0.0110
     19 C19       -27.3084   40.6945   13.7095 C.3         1 AAH      -0.0366
     20 C20       -28.7514   41.1603   14.0428 C.3         1 AAH       0.0004
     21 C21       -29.7546   40.0873   13.9174 C.2         1 AAH       0.0348
     22 O22       -30.0226   39.5394   12.7063 O.co2       1 AAH      -0.5690
     23 O23       -30.5554   39.7697   14.9633 O.co2       1 AAH      -0.5690
     24 H1        -20.1372   38.2902   15.0094 H           1 AAH       0.0676
     25 H2        -21.5951   40.1416   15.3814 H           1 AAH       0.0576
     26 H3        -23.8457   37.8084   18.1020 H           1 AAH       0.0576
     27 H4        -22.3651   35.9898   17.7550 H           1 AAH       0.0676
     28 H5        -23.1624   41.0283   17.5692 H           1 AAH       0.0994
     29 H6        -24.6145   40.0370   17.6486 H           1 AAH       0.0994
     30 H7        -23.4589   41.2254   15.2628 H           1 AAH       0.2064
     31 H8        -25.4565   42.6689   15.1152 H           1 AAH       0.1014
     32 H9        -24.0701   43.0454   16.0787 H           1 AAH       0.1014
     33 H10       -24.5915   39.0867   14.8741 H           1 AAH       0.0815
     34 H11       -24.7201   40.4225   13.7940 H           1 AAH       0.0815
     35 H12       -26.9234   40.2754   15.8307 H           1 AAH       0.0318
     36 H13       -26.8309   38.8875   14.7733 H           1 AAH       0.0318
     37 H14       -27.3387   40.0340   12.8264 H           1 AAH       0.0285
     38 H15       -26.7497   41.5929   13.4119 H           1 AAH       0.0285
     39 H16       -29.0324   41.9684   13.3628 H           1 AAH       0.0430
     40 H17       -28.7676   41.5750   15.0486 H           1 AAH       0.0430
@<TRIPOS>BOND
     1     1     6  ar
     2     1     2  ar
     3     2     3  ar
     4     3    10   1
     5     3     4  ar
     6     4     5  ar
     7     5     6  ar
     8     6     7   1
     9     7     9   2
    10     7     8   2
    11    10    11   1
    12    11    17   1
    13    11    12   1
    14    12    13   1
    15    13    16  ar
    16    13    15  ar
    17    13    14  ar
    18    17    18   1
    19    18    19   1
    20    19    20   1
    21    20    21   1
    22    21    23  ar
    23    21    22  ar
    24     1    24   1
    25     2    25   1
    26     4    26   1
    27     5    27   1
    28    10    28   1
    29    10    29   1
    30    11    30   1
    31    12    31   1
    32    12    32   1
    33    17    33   1
    34    17    34   1
    35    18    35   1
    36    18    36   1
    37    19    37   1
    38    19    38   1
    39    20    39   1
    40    20    40   1
@<TRIPOS>SUBSTRUCTURE
     1  AAH      1

