@<TRIPOS>MOLECULE
1kel_ligand_023
    40    40
SMALL
GAST_HUCK
****
This file was generated by PARSER (from files_GN.cpp)

@<TRIPOS>ATOM
      1 C1        -24.5680   40.7976   19.6687 C.ar        1 AAH      -0.0251
      2 C2        -24.4190   40.7637   18.2644 C.ar        1 AAH      -0.0467
      3 C3        -23.9322   41.8892   17.5725 C.ar        1 AAH       0.0074
      4 C4        -23.7034   43.0813   18.3028 C.ar        1 AAH      -0.0467
      5 C5        -23.8600   43.1163   19.7018 C.ar        1 AAH      -0.0251
      6 C6        -24.2682   41.9664   20.4205 C.ar        1 AAH       0.1925
      7 N7        -24.3530   41.9846   21.7804 N.2         1 AAH       0.3095
      8 O8        -24.6354   41.0026   22.4189 O.2         1 AAH       0.1751
      9 O9        -24.0726   43.0509   22.4907 O.2         1 AAH       0.1751
     10 C10       -23.7926   41.8884   16.0913 C.3         1 AAH       0.0060
     11 N11       -23.2960   40.6695   15.3457 N.4         1 AAH       0.2598
     12 C12       -24.3291   39.9183   14.5568 C.3         1 AAH       0.0389
     13 P13       -24.9656   40.7349   13.2429 P.3         1 AAH       0.1070
     14 O14       -23.9525   41.5235   12.5833 O.co2       1 AAH      -0.5587
     15 O15       -25.4846   39.7853   12.2867 O.co2       1 AAH      -0.5587
     16 O16       -26.0602   41.6012   13.6124 O.co2       1 AAH      -0.5587
     17 C17       -22.2982   39.7832   16.0465 C.3         1 AAH      -0.0289
     18 C18       -22.7875   38.4418   16.6843 C.3         1 AAH      -0.0110
     19 C19       -21.8514   37.2215   16.4290 C.3         1 AAH      -0.0366
     20 C20       -22.3955   35.9210   17.0916 C.3         1 AAH       0.0004
     21 C21       -21.4514   34.7866   17.1179 C.2         1 AAH       0.0348
     22 O22       -20.2551   34.8294   16.4915 O.co2       1 AAH      -0.5690
     23 O23       -21.7735   33.6693   17.8144 O.co2       1 AAH      -0.5690
     24 H1        -24.9006   39.9556   20.1412 H           1 AAH       0.0676
     25 H2        -24.6420   39.9034   17.7543 H           1 AAH       0.0576
     26 H3        -23.4352   43.9377   17.8188 H           1 AAH       0.0576
     27 H4        -23.6659   43.9937   20.1829 H           1 AAH       0.0676
     28 H5        -23.0991   42.6843   15.8023 H           1 AAH       0.0994
     29 H6        -24.7658   42.1987   15.7008 H           1 AAH       0.0994
     30 H7        -22.7173   41.0873   14.6091 H           1 AAH       0.2064
     31 H8        -25.1542   39.6033   15.1996 H           1 AAH       0.1014
     32 H9        -23.8870   39.0162   14.1254 H           1 AAH       0.1014
     33 H10       -21.7762   40.3459   16.8152 H           1 AAH       0.0815
     34 H11       -21.5328   39.5498   15.2940 H           1 AAH       0.0815
     35 H12       -23.7814   38.1863   16.3159 H           1 AAH       0.0318
     36 H13       -22.8756   38.5727   17.7663 H           1 AAH       0.0318
     37 H14       -20.8544   37.4382   16.8231 H           1 AAH       0.0285
     38 H15       -21.7530   37.0408   15.3548 H           1 AAH       0.0285
     39 H16       -23.2905   35.5918   16.5565 H           1 AAH       0.0430
     40 H17       -22.6896   36.1307   18.1249 H           1 AAH       0.0430
@<TRIPOS>BOND
     1     1     6  ar
     2     1     2  ar
     3     2     3  ar
     4     3    10   1
     5     3     4  ar
     6     4     5  ar
     7     5     6  ar
     8     6     7   1
     9     7     9   2
    10     7     8   2
    11    10    11   1
    12    11    17   1
    13    11    12   1
    14    12    13   1
    15    13    16  ar
    16    13    15  ar
    17    13    14  ar
    18    17    18   1
    19    18    19   1
    20    19    20   1
    21    20    21   1
    22    21    23  ar
    23    21    22  ar
    24     1    24   1
    25     2    25   1
    26     4    26   1
    27     5    27   1
    28    10    28   1
    29    10    29   1
    30    11    30   1
    31    12    31   1
    32    12    32   1
    33    17    33   1
    34    17    34   1
    35    18    35   1
    36    18    36   1
    37    19    37   1
    38    19    38   1
    39    20    39   1
    40    20    40   1
@<TRIPOS>SUBSTRUCTURE
     1  AAH      1

