@<TRIPOS>MOLECULE
1kel_ligand_017
    40    40
SMALL
GAST_HUCK
****
This file was generated by PARSER (from files_GN.cpp)

@<TRIPOS>ATOM
      1 C1        -26.8189   39.8812   13.2768 C.ar        1 AAH      -0.0251
      2 C2        -26.7039   39.8895   14.6768 C.ar        1 AAH      -0.0467
      3 C3        -26.0780   40.9647   15.3481 C.ar        1 AAH       0.0074
      4 C4        -25.7004   42.0906   14.5844 C.ar        1 AAH      -0.0467
      5 C5        -25.8393   42.0945   13.1815 C.ar        1 AAH      -0.0251
      6 C6        -26.3708   40.9744   12.4932 C.ar        1 AAH       0.1925
      7 N7        -26.4454   40.9470   11.1327 N.2         1 AAH       0.3095
      8 O8        -26.8616   39.9908   10.5252 O.2         1 AAH       0.1751
      9 O9        -26.0633   41.9506   10.3900 O.2         1 AAH       0.1751
     10 C10       -25.7826   40.8834   16.8101 C.3         1 AAH       0.0060
     11 N11       -24.6494   39.9760   17.2290 N.4         1 AAH       0.2598
     12 C12       -23.2818   40.5141   16.9057 C.3         1 AAH       0.0389
     13 P13       -22.6778   40.4619   15.3420 P.3         1 AAH       0.1070
     14 O14       -22.4543   41.7923   14.8335 O.co2       1 AAH      -0.5587
     15 O15       -21.3782   39.8282   15.3272 O.co2       1 AAH      -0.5587
     16 O16       -23.4580   39.7879   14.3417 O.co2       1 AAH      -0.5587
     17 C17       -24.8779   38.5200   16.9338 C.3         1 AAH      -0.0289
     18 C18       -24.0021   37.4857   17.6951 C.3         1 AAH      -0.0110
     19 C19       -24.1602   36.0726   17.0654 C.3         1 AAH      -0.0366
     20 C20       -23.4607   34.9254   17.8457 C.3         1 AAH       0.0004
     21 C21       -22.0356   34.7111   17.5244 C.2         1 AAH       0.0348
     22 O22       -21.4637   33.5285   17.8429 O.co2       1 AAH      -0.5690
     23 O23       -21.2551   35.6781   16.9899 O.co2       1 AAH      -0.5690
     24 H1        -27.2172   39.0532   12.8286 H           1 AAH       0.0676
     25 H2        -27.0475   39.0838   15.1996 H           1 AAH       0.0576
     26 H3        -25.2674   42.8986   15.0363 H           1 AAH       0.0576
     27 H4        -25.5118   42.9139   12.6632 H           1 AAH       0.0676
     28 H5        -26.6988   40.5804   17.3206 H           1 AAH       0.0994
     29 H6        -25.5761   41.8832   17.1966 H           1 AAH       0.0994
     30 H7        -24.6807   40.0270   18.2518 H           1 AAH       0.2064
     31 H8        -22.5642   40.0108   17.5536 H           1 AAH       0.1014
     32 H9        -23.2388   41.5515   17.2365 H           1 AAH       0.1014
     33 H10       -24.7615   38.3412   15.8658 H           1 AAH       0.0815
     34 H11       -25.9153   38.2709   17.2026 H           1 AAH       0.0815
     35 H12       -24.3065   37.4582   18.7494 H           1 AAH       0.0318
     36 H13       -22.9496   37.7551   17.6578 H           1 AAH       0.0318
     37 H14       -23.7802   36.0905   16.0356 H           1 AAH       0.0285
     38 H15       -25.2250   35.8332   17.0010 H           1 AAH       0.0285
     39 H16       -23.9887   33.9939   17.6168 H           1 AAH       0.0430
     40 H17       -23.5532   35.0945   18.9215 H           1 AAH       0.0430
@<TRIPOS>BOND
     1     1     6  ar
     2     1     2  ar
     3     2     3  ar
     4     3    10   1
     5     3     4  ar
     6     4     5  ar
     7     5     6  ar
     8     6     7   1
     9     7     9   2
    10     7     8   2
    11    10    11   1
    12    11    17   1
    13    11    12   1
    14    12    13   1
    15    13    16  ar
    16    13    15  ar
    17    13    14  ar
    18    17    18   1
    19    18    19   1
    20    19    20   1
    21    20    21   1
    22    21    23  ar
    23    21    22  ar
    24     1    24   1
    25     2    25   1
    26     4    26   1
    27     5    27   1
    28    10    28   1
    29    10    29   1
    30    11    30   1
    31    12    31   1
    32    12    32   1
    33    17    33   1
    34    17    34   1
    35    18    35   1
    36    18    36   1
    37    19    37   1
    38    19    38   1
    39    20    39   1
    40    20    40   1
@<TRIPOS>SUBSTRUCTURE
     1  AAH      1

