@<TRIPOS>MOLECULE
1kel_ligand_024
    40    40
SMALL
GAST_HUCK
****
This file was generated by PARSER (from files_GN.cpp)

@<TRIPOS>ATOM
      1 C1        -25.0489   40.8038   20.1678 C.ar        1 AAH      -0.0251
      2 C2        -24.2979   40.1931   19.1455 C.ar        1 AAH      -0.0467
      3 C3        -23.5898   40.9644   18.1934 C.ar        1 AAH       0.0074
      4 C4        -23.6470   42.3741   18.3178 C.ar        1 AAH      -0.0467
      5 C5        -24.3923   42.9833   19.3469 C.ar        1 AAH      -0.0251
      6 C6        -25.1088   42.2121   20.2941 C.ar        1 AAH       0.1925
      7 N7        -25.8332   42.8023   21.2876 N.2         1 AAH       0.3095
      8 O8        -26.4642   42.1747   22.0997 O.2         1 AAH       0.1751
      9 O9        -25.9113   44.1010   21.4174 O.2         1 AAH       0.1751
     10 C10       -22.7737   40.3196   17.1181 C.3         1 AAH       0.0060
     11 N11       -23.5179   39.2219   16.3891 N.4         1 AAH       0.2598
     12 C12       -23.1326   37.8193   16.8281 C.3         1 AAH       0.0389
     13 P13       -21.6239   37.2132   16.4199 P.3         1 AAH       0.1070
     14 O14       -21.5999   36.7967   15.0405 O.co2       1 AAH      -0.5587
     15 O15       -20.5539   38.1594   16.6092 O.co2       1 AAH      -0.5587
     16 O16       -21.3299   36.0390   17.2038 O.co2       1 AAH      -0.5587
     17 C17       -23.6353   39.3494   14.8924 C.3         1 AAH      -0.0289
     18 C18       -23.9332   40.7362   14.2425 C.3         1 AAH      -0.0110
     19 C19       -25.0075   41.6675   14.8649 C.3         1 AAH      -0.0366
     20 C20       -26.4858   41.2004   14.8045 C.3         1 AAH       0.0004
     21 C21       -26.8089   40.1294   15.7663 C.2         1 AAH       0.0348
     22 O22       -27.5110   39.0490   15.3624 O.co2       1 AAH      -0.5690
     23 O23       -26.4759   40.2574   17.0724 O.co2       1 AAH      -0.5690
     24 H1        -25.5584   40.2017   20.8177 H           1 AAH       0.0676
     25 H2        -24.2847   39.1721   19.0957 H           1 AAH       0.0576
     26 H3        -23.1487   42.9738   17.6559 H           1 AAH       0.0576
     27 H4        -24.4030   44.0084   19.3941 H           1 AAH       0.0676
     28 H5        -21.8690   39.9438   17.5980 H           1 AAH       0.0994
     29 H6        -22.4161   41.0691   16.4101 H           1 AAH       0.0994
     30 H7        -24.4834   39.3159   16.7029 H           1 AAH       0.2064
     31 H8        -23.8881   37.1254   16.4452 H           1 AAH       0.1014
     32 H9        -23.1970   37.7614   17.9180 H           1 AAH       0.1014
     33 H10       -24.4279   38.6741   14.5635 H           1 AAH       0.0815
     34 H11       -22.7060   39.0053   14.4364 H           1 AAH       0.0815
     35 H12       -24.2164   40.5513   13.1972 H           1 AAH       0.0318
     36 H13       -22.9940   41.3009   14.1994 H           1 AAH       0.0318
     37 H14       -24.9568   42.6076   14.3094 H           1 AAH       0.0285
     38 H15       -24.7378   41.9028   15.8943 H           1 AAH       0.0285
     39 H16       -26.7269   40.8798   13.7881 H           1 AAH       0.0430
     40 H17       -27.1267   42.0505   15.0444 H           1 AAH       0.0430
@<TRIPOS>BOND
     1     1     6  ar
     2     1     2  ar
     3     2     3  ar
     4     3    10   1
     5     3     4  ar
     6     4     5  ar
     7     5     6  ar
     8     6     7   1
     9     7     9   2
    10     7     8   2
    11    10    11   1
    12    11    17   1
    13    11    12   1
    14    12    13   1
    15    13    16  ar
    16    13    15  ar
    17    13    14  ar
    18    17    18   1
    19    18    19   1
    20    19    20   1
    21    20    21   1
    22    21    23  ar
    23    21    22  ar
    24     1    24   1
    25     2    25   1
    26     4    26   1
    27     5    27   1
    28    10    28   1
    29    10    29   1
    30    11    30   1
    31    12    31   1
    32    12    32   1
    33    17    33   1
    34    17    34   1
    35    18    35   1
    36    18    36   1
    37    19    37   1
    38    19    38   1
    39    20    39   1
    40    20    40   1
@<TRIPOS>SUBSTRUCTURE
     1  AAH      1

