@<TRIPOS>MOLECULE
1kel_ligand_010
    40    40
SMALL
GAST_HUCK
****
This file was generated by PARSER (from files_GN.cpp)

@<TRIPOS>ATOM
      1 C1        -21.8216   36.5680   15.8547 C.ar        1 AAH      -0.0251
      2 C2        -22.2332   37.8648   15.5181 C.ar        1 AAH      -0.0467
      3 C3        -23.2288   38.5350   16.2608 C.ar        1 AAH       0.0074
      4 C4        -23.7861   37.8578   17.3720 C.ar        1 AAH      -0.0467
      5 C5        -23.3689   36.5481   17.7095 C.ar        1 AAH      -0.0251
      6 C6        -22.3755   35.8725   16.9527 C.ar        1 AAH       0.1925
      7 N7        -21.9953   34.5929   17.2544 N.2         1 AAH       0.3095
      8 O8        -21.1466   34.0072   16.6239 O.2         1 AAH       0.1751
      9 O9        -22.5599   33.9099   18.2129 O.2         1 AAH       0.1751
     10 C10       -23.6496   39.9045   15.8126 C.3         1 AAH       0.0060
     11 N11       -24.8512   40.6320   16.3699 N.4         1 AAH       0.2598
     12 C12       -24.6547   41.1002   17.7998 C.3         1 AAH       0.0389
     13 P13       -25.7624   42.2324   18.3587 P.3         1 AAH       0.1070
     14 O14       -25.5417   42.4063   19.7776 O.co2       1 AAH      -0.5587
     15 O15       -25.5935   43.5233   17.7330 O.co2       1 AAH      -0.5587
     16 O16       -27.1271   41.7944   18.1970 O.co2       1 AAH      -0.5587
     17 C17       -26.1704   39.9532   16.0708 C.3         1 AAH      -0.0289
     18 C18       -27.1321   40.8085   15.1943 C.3         1 AAH      -0.0110
     19 C19       -26.5079   41.2715   13.8310 C.3         1 AAH      -0.0366
     20 C20       -27.5687   41.4255   12.6961 C.3         1 AAH       0.0004
     21 C21       -27.0733   40.9941   11.3690 C.2         1 AAH       0.0348
     22 O22       -26.7626   39.6864   11.1838 O.co2       1 AAH      -0.5690
     23 O23       -27.0546   41.8528   10.3231 O.co2       1 AAH      -0.5690
     24 H1        -21.1082   36.1233   15.2682 H           1 AAH       0.0676
     25 H2        -21.8080   38.3239   14.7032 H           1 AAH       0.0576
     26 H3        -24.5134   38.2918   17.9467 H           1 AAH       0.0576
     27 H4        -23.8097   36.0968   18.5129 H           1 AAH       0.0676
     28 H5        -23.8080   39.8375   14.7243 H           1 AAH       0.0994
     29 H6        -22.7822   40.5577   15.9421 H           1 AAH       0.0994
     30 H7        -24.8794   41.4950   15.8187 H           1 AAH       0.2064
     31 H8        -23.6735   41.5816   17.8864 H           1 AAH       0.1014
     32 H9        -24.6740   40.2386   18.4820 H           1 AAH       0.1014
     33 H10       -26.6922   39.6969   17.0043 H           1 AAH       0.0815
     34 H11       -26.0232   38.9917   15.5509 H           1 AAH       0.0815
     35 H12       -27.4574   41.6978   15.7710 H           1 AAH       0.0318
     36 H13       -28.0129   40.1789   15.0040 H           1 AAH       0.0318
     37 H14       -25.7435   40.5402   13.5093 H           1 AAH       0.0285
     38 H15       -25.9912   42.2359   13.9797 H           1 AAH       0.0285
     39 H16       -27.9079   42.4724   12.6510 H           1 AAH       0.0430
     40 H17       -28.4371   40.7884   12.9220 H           1 AAH       0.0430
@<TRIPOS>BOND
     1     1     6  ar
     2     1     2  ar
     3     2     3  ar
     4     3    10   1
     5     3     4  ar
     6     4     5  ar
     7     5     6  ar
     8     6     7   1
     9     7     9   2
    10     7     8   2
    11    10    11   1
    12    11    17   1
    13    11    12   1
    14    12    13   1
    15    13    16  ar
    16    13    15  ar
    17    13    14  ar
    18    17    18   1
    19    18    19   1
    20    19    20   1
    21    20    21   1
    22    21    23  ar
    23    21    22  ar
    24     1    24   1
    25     2    25   1
    26     4    26   1
    27     5    27   1
    28    10    28   1
    29    10    29   1
    30    11    30   1
    31    12    31   1
    32    12    32   1
    33    17    33   1
    34    17    34   1
    35    18    35   1
    36    18    36   1
    37    19    37   1
    38    19    38   1
    39    20    39   1
    40    20    40   1
@<TRIPOS>SUBSTRUCTURE
     1  AAH      1

