@<TRIPOS>MOLECULE
1kel_ligand_049
    40    40
SMALL
GAST_HUCK
****
This file was generated by PARSER (from files_GN.cpp)

@<TRIPOS>ATOM
      1 C1        -25.1722   44.3154   17.6136 C.ar        1 AAH      -0.0251
      2 C2        -24.6173   43.2381   16.8940 C.ar        1 AAH      -0.0467
      3 C3        -25.2362   41.9705   16.9036 C.ar        1 AAH       0.0074
      4 C4        -26.4151   41.8073   17.6648 C.ar        1 AAH      -0.0467
      5 C5        -26.9639   42.8836   18.3865 C.ar        1 AAH      -0.0251
      6 C6        -26.3601   44.1630   18.3707 C.ar        1 AAH       0.1925
      7 N7        -26.9131   45.2069   19.0558 N.2         1 AAH       0.3095
      8 O8        -26.4317   46.3090   19.0565 O.2         1 AAH       0.1751
      9 O9        -28.0102   45.0848   19.7490 O.2         1 AAH       0.1751
     10 C10       -24.7055   40.8360   16.1118 C.3         1 AAH       0.0060
     11 N11       -23.9452   39.8610   16.9852 N.4         1 AAH       0.2598
     12 C12       -22.4520   39.9435   16.7744 C.3         1 AAH       0.0389
     13 P13       -21.7643   38.9304   15.6363 P.3         1 AAH       0.1070
     14 O14       -21.1566   37.7940   16.2986 O.co2       1 AAH      -0.5587
     15 O15       -22.7414   38.3947   14.7128 O.co2       1 AAH      -0.5587
     16 O16       -20.7307   39.5630   14.8466 O.co2       1 AAH      -0.5587
     17 C17       -24.5600   38.4876   16.9654 C.3         1 AAH      -0.0289
     18 C18       -23.8977   37.3601   17.8178 C.3         1 AAH      -0.0110
     19 C19       -24.1028   35.9651   17.1658 C.3         1 AAH      -0.0366
     20 C20       -23.4651   34.7777   17.9385 C.3         1 AAH       0.0004
     21 C21       -22.0309   34.5434   17.6461 C.2         1 AAH       0.0348
     22 O22       -21.4776   33.3590   17.9970 O.co2       1 AAH      -0.5690
     23 O23       -21.2289   35.5047   17.1136 O.co2       1 AAH      -0.5690
     24 H1        -24.6987   45.2207   17.5694 H           1 AAH       0.0676
     25 H2        -23.7596   43.3925   16.3563 H           1 AAH       0.0576
     26 H3        -26.8973   40.9048   17.6763 H           1 AAH       0.0576
     27 H4        -27.8242   42.7184   18.9151 H           1 AAH       0.0676
     28 H5        -24.0795   41.2213   15.3012 H           1 AAH       0.0994
     29 H6        -25.5458   40.3645   15.5958 H           1 AAH       0.0994
     30 H7        -24.0766   40.1832   17.9529 H           1 AAH       0.2064
     31 H8        -21.9391   39.7785   17.7231 H           1 AAH       0.1014
     32 H9        -22.1962   40.9735   16.4978 H           1 AAH       0.1014
     33 H10       -24.6255   38.1542   15.9221 H           1 AAH       0.0815
     34 H11       -25.5974   38.5713   17.3233 H           1 AAH       0.0815
     35 H12       -24.3346   37.3586   18.8219 H           1 AAH       0.0318
     36 H13       -22.8235   37.5349   17.9279 H           1 AAH       0.0318
     37 H14       -23.6924   35.9765   16.1481 H           1 AAH       0.0285
     38 H15       -25.1745   35.7782   17.0670 H           1 AAH       0.0285
     39 H16       -24.0061   33.8713   17.6607 H           1 AAH       0.0430
     40 H17       -23.5935   34.9175   19.0173 H           1 AAH       0.0430
@<TRIPOS>BOND
     1     1     6  ar
     2     1     2  ar
     3     2     3  ar
     4     3    10   1
     5     3     4  ar
     6     4     5  ar
     7     5     6  ar
     8     6     7   1
     9     7     9   2
    10     7     8   2
    11    10    11   1
    12    11    17   1
    13    11    12   1
    14    12    13   1
    15    13    16  ar
    16    13    15  ar
    17    13    14  ar
    18    17    18   1
    19    18    19   1
    20    19    20   1
    21    20    21   1
    22    21    23  ar
    23    21    22  ar
    24     1    24   1
    25     2    25   1
    26     4    26   1
    27     5    27   1
    28    10    28   1
    29    10    29   1
    30    11    30   1
    31    12    31   1
    32    12    32   1
    33    17    33   1
    34    17    34   1
    35    18    35   1
    36    18    36   1
    37    19    37   1
    38    19    38   1
    39    20    39   1
    40    20    40   1
@<TRIPOS>SUBSTRUCTURE
     1  AAH      1

