@<TRIPOS>MOLECULE
1kel_ligand_038
    40    40
SMALL
GAST_HUCK
****
This file was generated by PARSER (from files_GN.cpp)

@<TRIPOS>ATOM
      1 C1        -25.2411   39.4315   13.1363 C.ar        1 AAH      -0.0251
      2 C2        -24.2431   39.3012   14.1138 C.ar        1 AAH      -0.0467
      3 C3        -23.5617   40.4310   14.6059 C.ar        1 AAH       0.0074
      4 C4        -23.8374   41.6817   14.0007 C.ar        1 AAH      -0.0467
      5 C5        -24.7992   41.7998   12.9845 C.ar        1 AAH      -0.0251
      6 C6        -25.5399   40.6787   12.5404 C.ar        1 AAH       0.1925
      7 N7        -26.5074   40.7865   11.5843 N.2         1 AAH       0.3095
      8 O8        -27.1110   39.8308   11.1707 O.2         1 AAH       0.1751
      9 O9        -26.8372   41.9311   11.0522 O.2         1 AAH       0.1751
     10 C10       -22.6180   40.3967   15.7628 C.3         1 AAH       0.0060
     11 N11       -22.1139   39.1144   16.3718 N.4         1 AAH       0.2598
     12 C12       -21.1505   38.3869   15.4681 C.3         1 AAH       0.0389
     13 P13       -20.0401   37.4114   16.2340 P.3         1 AAH       0.1070
     14 O14       -20.6734   36.3268   16.9359 O.co2       1 AAH      -0.5587
     15 O15       -19.2228   36.8130   15.2106 O.co2       1 AAH      -0.5587
     16 O16       -19.1905   38.1693   17.1168 O.co2       1 AAH      -0.5587
     17 C17       -23.1206   38.2000   17.0494 C.3         1 AAH      -0.0289
     18 C18       -24.3938   38.7985   17.7361 C.3         1 AAH      -0.0110
     19 C19       -25.6597   38.9068   16.8192 C.3         1 AAH      -0.0366
     20 C20       -26.1560   40.3527   16.5416 C.3         1 AAH       0.0004
     21 C21       -27.1932   40.4551   15.4903 C.2         1 AAH       0.0348
     22 O22       -27.8893   39.3760   15.0690 O.co2       1 AAH      -0.5690
     23 O23       -27.2281   41.5606   14.7148 O.co2       1 AAH      -0.5690
     24 H1        -25.7562   38.5943   12.8730 H           1 AAH       0.0676
     25 H2        -24.0787   38.3773   14.4956 H           1 AAH       0.0576
     26 H3        -23.3506   42.5201   14.3185 H           1 AAH       0.0576
     27 H4        -24.9701   42.7271   12.5785 H           1 AAH       0.0676
     28 H5        -23.0547   40.9897   16.5655 H           1 AAH       0.0994
     29 H6        -21.7449   40.9710   15.4488 H           1 AAH       0.0994
     30 H7        -21.5380   39.4534   17.1436 H           1 AAH       0.2064
     31 H8        -20.5546   39.0955   14.8891 H           1 AAH       0.1014
     32 H9        -21.6786   37.7646   14.7424 H           1 AAH       0.1014
     33 H10       -22.5668   37.6931   17.8382 H           1 AAH       0.0815
     34 H11       -23.4385   37.4067   16.3708 H           1 AAH       0.0815
     35 H12       -24.1503   39.7560   18.1951 H           1 AAH       0.0318
     36 H13       -24.6572   38.1404   18.5720 H           1 AAH       0.0318
     37 H14       -26.4824   38.3480   17.2789 H           1 AAH       0.0285
     38 H15       -25.4811   38.4071   15.8772 H           1 AAH       0.0285
     39 H16       -25.3121   40.9719   16.2454 H           1 AAH       0.0430
     40 H17       -26.5664   40.7859   17.4575 H           1 AAH       0.0430
@<TRIPOS>BOND
     1     1     6  ar
     2     1     2  ar
     3     2     3  ar
     4     3    10   1
     5     3     4  ar
     6     4     5  ar
     7     5     6  ar
     8     6     7   1
     9     7     9   2
    10     7     8   2
    11    10    11   1
    12    11    17   1
    13    11    12   1
    14    12    13   1
    15    13    16  ar
    16    13    15  ar
    17    13    14  ar
    18    17    18   1
    19    18    19   1
    20    19    20   1
    21    20    21   1
    22    21    23  ar
    23    21    22  ar
    24     1    24   1
    25     2    25   1
    26     4    26   1
    27     5    27   1
    28    10    28   1
    29    10    29   1
    30    11    30   1
    31    12    31   1
    32    12    32   1
    33    17    33   1
    34    17    34   1
    35    18    35   1
    36    18    36   1
    37    19    37   1
    38    19    38   1
    39    20    39   1
    40    20    40   1
@<TRIPOS>SUBSTRUCTURE
     1  AAH      1

