@<TRIPOS>MOLECULE
1kel_ligand_034
    40    40
SMALL
GAST_HUCK
****
This file was generated by PARSER (from files_GN.cpp)

@<TRIPOS>ATOM
      1 C1        -28.3025   43.9396   15.7836 C.ar        1 AAH      -0.0251
      2 C2        -28.1404   42.5578   15.5982 C.ar        1 AAH      -0.0467
      3 C3        -26.9923   41.8997   16.0971 C.ar        1 AAH       0.0074
      4 C4        -26.0496   42.6510   16.8279 C.ar        1 AAH      -0.0467
      5 C5        -26.2269   44.0289   17.0278 C.ar        1 AAH      -0.0251
      6 C6        -27.3540   44.7103   16.5044 C.ar        1 AAH       0.1925
      7 N7        -27.5185   46.0487   16.7008 N.2         1 AAH       0.3095
      8 O8        -28.4521   46.6583   16.2551 O.2         1 AAH       0.1751
      9 O9        -26.6752   46.7635   17.3932 O.2         1 AAH       0.1751
     10 C10       -26.8113   40.4362   15.9458 C.3         1 AAH       0.0060
     11 N11       -25.5678   40.0858   15.1546 N.4         1 AAH       0.2598
     12 C12       -25.8217   39.4575   13.8042 C.3         1 AAH       0.0389
     13 P13       -26.7350   40.3284   12.7167 P.3         1 AAH       0.1070
     14 O14       -26.0506   41.5102   12.2531 O.co2       1 AAH      -0.5587
     15 O15       -26.9854   39.5178   11.5413 O.co2       1 AAH      -0.5587
     16 O16       -28.0339   40.7138   13.2193 O.co2       1 AAH      -0.5587
     17 C17       -24.4991   39.3582   15.9486 C.3         1 AAH      -0.0289
     18 C18       -24.8995   38.0486   16.6967 C.3         1 AAH      -0.0110
     19 C19       -23.7173   37.2603   17.3525 C.3         1 AAH      -0.0366
     20 C20       -23.5509   35.8238   16.7975 C.3         1 AAH       0.0004
     21 C21       -22.4301   35.0979   17.4174 C.2         1 AAH       0.0348
     22 O22       -22.6364   33.9599   18.1186 O.co2       1 AAH      -0.5690
     23 O23       -21.1567   35.4889   17.1854 O.co2       1 AAH      -0.5690
     24 H1        -29.1401   44.3799   15.3949 H           1 AAH       0.0676
     25 H2        -28.8618   42.0276   15.1036 H           1 AAH       0.0576
     26 H3        -25.2273   42.1978   17.2327 H           1 AAH       0.0576
     27 H4        -25.5204   44.5326   17.5649 H           1 AAH       0.0676
     28 H5        -27.6994   39.9728   15.5046 H           1 AAH       0.0994
     29 H6        -26.7806   40.0470   16.9647 H           1 AAH       0.0994
     30 H7        -25.1330   40.9849   14.9361 H           1 AAH       0.2064
     31 H8        -26.2775   38.4710   13.9308 H           1 AAH       0.1014
     32 H9        -24.8697   39.3092   13.2862 H           1 AAH       0.1014
     33 H10       -24.1038   40.0514   16.6919 H           1 AAH       0.0815
     34 H11       -23.6562   39.1233   15.2873 H           1 AAH       0.0815
     35 H12       -25.4586   37.4079   16.0081 H           1 AAH       0.0318
     36 H13       -25.5826   38.3087   17.5038 H           1 AAH       0.0318
     37 H14       -23.9023   37.1843   18.4293 H           1 AAH       0.0285
     38 H15       -22.7802   37.8086   17.2263 H           1 AAH       0.0285
     39 H16       -23.3772   35.8710   15.7198 H           1 AAH       0.0430
     40 H17       -24.4775   35.2686   16.9734 H           1 AAH       0.0430
@<TRIPOS>BOND
     1     1     6  ar
     2     1     2  ar
     3     2     3  ar
     4     3    10   1
     5     3     4  ar
     6     4     5  ar
     7     5     6  ar
     8     6     7   1
     9     7     9   2
    10     7     8   2
    11    10    11   1
    12    11    17   1
    13    11    12   1
    14    12    13   1
    15    13    16  ar
    16    13    15  ar
    17    13    14  ar
    18    17    18   1
    19    18    19   1
    20    19    20   1
    21    20    21   1
    22    21    23  ar
    23    21    22  ar
    24     1    24   1
    25     2    25   1
    26     4    26   1
    27     5    27   1
    28    10    28   1
    29    10    29   1
    30    11    30   1
    31    12    31   1
    32    12    32   1
    33    17    33   1
    34    17    34   1
    35    18    35   1
    36    18    36   1
    37    19    37   1
    38    19    38   1
    39    20    39   1
    40    20    40   1
@<TRIPOS>SUBSTRUCTURE
     1  AAH      1

