@<TRIPOS>MOLECULE
1kel_ligand_029
    40    40
SMALL
GAST_HUCK
****
This file was generated by PARSER (from files_GN.cpp)

@<TRIPOS>ATOM
      1 C1        -27.5865   42.0533   13.0508 C.ar        1 AAH      -0.0251
      2 C2        -26.9900   40.9034   13.6031 C.ar        1 AAH      -0.0467
      3 C3        -25.6232   40.6264   13.3856 C.ar        1 AAH       0.0074
      4 C4        -24.8739   41.5206   12.5921 C.ar        1 AAH      -0.0467
      5 C5        -25.4658   42.6744   12.0523 C.ar        1 AAH      -0.0251
      6 C6        -26.8366   42.9657   12.2686 C.ar        1 AAH       0.1925
      7 N7        -27.4093   44.0887   11.7384 N.2         1 AAH       0.3095
      8 O8        -28.5594   44.3746   11.9149 O.2         1 AAH       0.1751
      9 O9        -26.7339   44.9383   11.0091 O.2         1 AAH       0.1751
     10 C10       -24.9830   39.4400   14.0180 C.3         1 AAH       0.0060
     11 N11       -24.8648   39.5310   15.5189 N.4         1 AAH       0.2598
     12 C12       -24.0471   40.7249   15.9685 C.3         1 AAH       0.0389
     13 P13       -24.0057   41.1145   17.5863 P.3         1 AAH       0.1070
     14 O14       -22.7861   40.6334   18.2021 O.co2       1 AAH      -0.5587
     15 O15       -23.9395   42.5460   17.7534 O.co2       1 AAH      -0.5587
     16 O16       -25.1403   40.6215   18.3375 O.co2       1 AAH      -0.5587
     17 C17       -24.5139   38.1890   16.1188 C.3         1 AAH      -0.0289
     18 C18       -23.0135   37.7673   16.1204 C.3         1 AAH      -0.0110
     19 C19       -22.7040   36.2602   16.3809 C.3         1 AAH      -0.0366
     20 C20       -23.5172   35.5815   17.5227 C.3         1 AAH       0.0004
     21 C21       -23.0791   34.2174   17.8899 C.2         1 AAH       0.0348
     22 O22       -23.8327   33.4965   18.7530 O.co2       1 AAH      -0.5690
     23 O23       -21.8353   33.7589   17.6371 O.co2       1 AAH      -0.5690
     24 H1        -28.5831   42.2095   13.2182 H           1 AAH       0.0676
     25 H2        -27.5597   40.2753   14.1756 H           1 AAH       0.0576
     26 H3        -23.8803   41.3493   12.4169 H           1 AAH       0.0576
     27 H4        -24.8789   43.3138   11.5115 H           1 AAH       0.0676
     28 H5        -23.9928   39.2635   13.5912 H           1 AAH       0.0994
     29 H6        -25.5986   38.5813   13.7358 H           1 AAH       0.0994
     30 H7        -25.8142   39.7196   15.8450 H           1 AAH       0.2064
     31 H8        -24.4741   41.6128   15.4985 H           1 AAH       0.1014
     32 H9        -23.0202   40.6380   15.6001 H           1 AAH       0.1014
     33 H10       -25.0863   37.4002   15.6224 H           1 AAH       0.0815
     34 H11       -24.8604   38.1920   17.1564 H           1 AAH       0.0815
     35 H12       -22.4943   38.3387   16.8897 H           1 AAH       0.0318
     36 H13       -22.5658   38.0317   15.1576 H           1 AAH       0.0318
     37 H14       -21.6353   36.1822   16.6160 H           1 AAH       0.0285
     38 H15       -22.8709   35.6964   15.4557 H           1 AAH       0.0285
     39 H16       -24.5603   35.5096   17.2074 H           1 AAH       0.0430
     40 H17       -23.4742   36.2011   18.4213 H           1 AAH       0.0430
@<TRIPOS>BOND
     1     1     6  ar
     2     1     2  ar
     3     2     3  ar
     4     3    10   1
     5     3     4  ar
     6     4     5  ar
     7     5     6  ar
     8     6     7   1
     9     7     9   2
    10     7     8   2
    11    10    11   1
    12    11    17   1
    13    11    12   1
    14    12    13   1
    15    13    16  ar
    16    13    15  ar
    17    13    14  ar
    18    17    18   1
    19    18    19   1
    20    19    20   1
    21    20    21   1
    22    21    23  ar
    23    21    22  ar
    24     1    24   1
    25     2    25   1
    26     4    26   1
    27     5    27   1
    28    10    28   1
    29    10    29   1
    30    11    30   1
    31    12    31   1
    32    12    32   1
    33    17    33   1
    34    17    34   1
    35    18    35   1
    36    18    36   1
    37    19    37   1
    38    19    38   1
    39    20    39   1
    40    20    40   1
@<TRIPOS>SUBSTRUCTURE
     1  AAH      1

