@<TRIPOS>MOLECULE
1kel_ligand_042
    40    40
SMALL
GAST_HUCK
****
This file was generated by PARSER (from files_GN.cpp)

@<TRIPOS>ATOM
      1 C1        -26.3581   39.8425   13.4045 C.ar        1 AAH      -0.0251
      2 C2        -25.2314   39.1152   13.8301 C.ar        1 AAH      -0.0467
      3 C3        -25.1416   38.6428   15.1511 C.ar        1 AAH       0.0074
      4 C4        -26.2162   38.8895   16.0324 C.ar        1 AAH      -0.0467
      5 C5        -27.2925   39.6939   15.6279 C.ar        1 AAH      -0.0251
      6 C6        -27.4161   40.1578   14.2957 C.ar        1 AAH       0.1925
      7 N7        -28.4904   40.9059   13.9150 N.2         1 AAH       0.3095
      8 O8        -28.6060   41.3377   12.7975 O.2         1 AAH       0.1751
      9 O9        -29.4673   41.1949   14.7325 O.2         1 AAH       0.1751
     10 C10       -23.9647   37.8565   15.5964 C.3         1 AAH       0.0060
     11 N11       -22.6924   38.6547   15.6787 N.4         1 AAH       0.2598
     12 C12       -21.4090   37.8360   15.6978 C.3         1 AAH       0.0389
     13 P13       -21.4598   36.2620   16.2372 P.3         1 AAH       0.1070
     14 O14       -22.1631   36.1328   17.4934 O.co2       1 AAH      -0.5587
     15 O15       -22.1798   35.4882   15.2392 O.co2       1 AAH      -0.5587
     16 O16       -20.1607   35.6285   16.3479 O.co2       1 AAH      -0.5587
     17 C17       -22.7345   39.7806   16.6865 C.3         1 AAH      -0.0289
     18 C18       -23.2533   41.0912   16.0111 C.3         1 AAH      -0.0110
     19 C19       -23.7479   42.1764   17.0125 C.3         1 AAH      -0.0366
     20 C20       -25.2889   42.3781   16.9319 C.3         1 AAH       0.0004
     21 C21       -25.9466   42.5040   18.2511 C.2         1 AAH       0.0348
     22 O22       -27.2456   42.1213   18.3811 O.co2       1 AAH      -0.5690
     23 O23       -25.3528   43.1944   19.2597 O.co2       1 AAH      -0.5690
     24 H1        -26.3899   40.1652   12.4302 H           1 AAH       0.0676
     25 H2        -24.4778   38.9273   13.1643 H           1 AAH       0.0576
     26 H3        -26.1805   38.5610   17.0007 H           1 AAH       0.0576
     27 H4        -28.0279   39.8803   16.3124 H           1 AAH       0.0676
     28 H5        -23.8210   37.0381   14.8971 H           1 AAH       0.0994
     29 H6        -24.1551   37.4109   16.5712 H           1 AAH       0.0994
     30 H7        -22.6237   39.1286   14.7700 H           1 AAH       0.2064
     31 H8        -20.6275   38.3470   16.2865 H           1 AAH       0.1014
     32 H9        -21.0222   37.8138   14.6724 H           1 AAH       0.1014
     33 H10       -21.7391   40.0171   17.1154 H           1 AAH       0.0815
     34 H11       -23.3763   39.5217   17.5381 H           1 AAH       0.0815
     35 H12       -24.0689   40.8236   15.3151 H           1 AAH       0.0318
     36 H13       -22.4373   41.4916   15.3982 H           1 AAH       0.0318
     37 H14       -23.2644   43.1291   16.7528 H           1 AAH       0.0285
     38 H15       -23.4501   41.9131   18.0338 H           1 AAH       0.0285
     39 H16       -25.7533   41.5323   16.3861 H           1 AAH       0.0430
     40 H17       -25.4915   43.2977   16.3631 H           1 AAH       0.0430
@<TRIPOS>BOND
     1     1     6  ar
     2     1     2  ar
     3     2     3  ar
     4     3    10   1
     5     3     4  ar
     6     4     5  ar
     7     5     6  ar
     8     6     7   1
     9     7     9   2
    10     7     8   2
    11    10    11   1
    12    11    17   1
    13    11    12   1
    14    12    13   1
    15    13    16  ar
    16    13    15  ar
    17    13    14  ar
    18    17    18   1
    19    18    19   1
    20    19    20   1
    21    20    21   1
    22    21    23  ar
    23    21    22  ar
    24     1    24   1
    25     2    25   1
    26     4    26   1
    27     5    27   1
    28    10    28   1
    29    10    29   1
    30    11    30   1
    31    12    31   1
    32    12    32   1
    33    17    33   1
    34    17    34   1
    35    18    35   1
    36    18    36   1
    37    19    37   1
    38    19    38   1
    39    20    39   1
    40    20    40   1
@<TRIPOS>SUBSTRUCTURE
     1  AAH      1

