@<TRIPOS>MOLECULE
1lbk_ligand_010
    36    35
SMALL
GAST_HUCK
****
This file was generated by PARSER (from files_GN.cpp)

@<TRIPOS>ATOM
      1 N1          5.4993   34.1682   -1.9058 N.4         1 GSH       0.2328
      2 CA1         6.2942   34.4031   -3.1220 C.3         1 GSH       0.0304
      3 C1          5.8108   33.5034   -4.1863 C.2         1 GSH       0.0846
      4 O11         5.1222   33.9824   -5.2482 O.co2       1 GSH      -0.5643
      5 O12         5.9954   32.1655   -4.0866 O.co2       1 GSH      -0.5643
      6 CB1         7.8117   34.1964   -2.8157 C.3         1 GSH       0.0193
      7 CG1         8.7870   35.0154   -3.7205 C.3         1 GSH       0.0441
      8 CD1         8.6165   36.4507   -3.6235 C.2         1 GSH       0.1785
      9 OE1         8.2314   37.0684   -4.6132 O.2         1 GSH      -0.3969
     10 N2          8.8188   37.0583   -2.4581 N.am        1 GSH      -0.2648
     11 CA2         8.5594   38.4063   -2.0376 C.3         1 GSH       0.1395
     12 C2          7.2898   38.9753   -2.5174 C.2         1 GSH       0.2039
     13 O2          7.2889   39.6875   -3.5123 O.2         1 GSH      -0.3944
     14 CB2         9.7990   39.3162   -2.2079 C.3         1 GSH       0.0311
     15 SG2        10.0608   40.0266   -3.8447 S.3         1 GSH      -0.1735
     16 N3          6.1351   38.6634   -1.9064 N.am        1 GSH      -0.2722
     17 CA3         4.8292   39.1116   -2.2802 C.3         1 GSH       0.0833
     18 C3          4.7284   40.5718   -2.3960 C.2         1 GSH       0.0570
     19 O31         3.8763   41.2948   -1.6164 O.co2       1 GSH      -0.5669
     20 O32         5.3381   41.2303   -3.4241 O.co2       1 GSH      -0.5669
     21 H1          5.7987   34.8073   -1.1692 H           1 GSH       0.2010
     22 H2          5.6272   33.2056   -1.5899 H           1 GSH       0.2010
     23 H3          4.5083   34.3293   -2.1065 H           1 GSH       0.2010
     24 H4          6.1231   35.4406   -3.4191 H           1 GSH       0.1026
     25 H5          8.0585   33.1332   -2.9093 H           1 GSH       0.0363
     26 H6          8.0022   34.4659   -1.7721 H           1 GSH       0.0363
     27 H7          8.6726   34.6723   -4.7561 H           1 GSH       0.0505
     28 H8          9.8110   34.7735   -3.4226 H           1 GSH       0.0505
     29 H9          9.1583   36.4760   -1.7550 H           1 GSH       0.1883
     30 H10         8.4510   38.3034   -0.9588 H           1 GSH       0.0808
     31 H11        10.7040   38.7769   -1.9052 H           1 GSH       0.0422
     32 H12         9.7171   40.1713   -1.5108 H           1 GSH       0.0422
     33 H13        10.7119   38.9133   -4.4051 H           1 GSH       0.1019
     34 H14         6.1800   38.0812   -1.1345 H           1 GSH       0.1873
     35 H15         4.1415   38.7676   -1.5083 H           1 GSH       0.0689
     36 H16         4.5284   38.6462   -3.2280 H           1 GSH       0.0689
@<TRIPOS>BOND
     1     1     2   1
     2     2     3   1
     3     2     6   1
     4     3     4  ar
     5     3     5  ar
     6     6     7   1
     7     7     8   1
     8     8     9   2
     9     8    10  am
    10    10    11   1
    11    11    12   1
    12    11    14   1
    13    12    13   2
    14    12    16  am
    15    14    15   1
    16    16    17   1
    17    17    18   1
    18    18    19  ar
    19    18    20  ar
    20     1    21   1
    21     1    22   1
    22     1    23   1
    23     2    24   1
    24     6    25   1
    25     6    26   1
    26     7    27   1
    27     7    28   1
    28    10    29   1
    29    11    30   1
    30    14    31   1
    31    14    32   1
    32    15    33   1
    33    16    34   1
    34    17    35   1
    35    17    36   1
@<TRIPOS>SUBSTRUCTURE
     1  GSH      2

