@<TRIPOS>MOLECULE
1lbk_ligand_013
    36    35
SMALL
GAST_HUCK
****
This file was generated by PARSER (from files_GN.cpp)

@<TRIPOS>ATOM
      1 N1          6.3727   38.0369   -1.6398 N.4         1 GSH       0.2328
      2 CA1         5.7797   38.2144   -2.9775 C.3         1 GSH       0.0304
      3 C1          6.8798   38.4917   -3.9355 C.2         1 GSH       0.0846
      4 O11         7.3011   39.7597   -4.1470 O.co2       1 GSH      -0.5643
      5 O12         7.8071   37.5223   -4.1303 O.co2       1 GSH      -0.5643
      6 CB1         4.6424   39.2838   -2.9875 C.3         1 GSH       0.0193
      7 CG1         3.6483   39.2511   -1.7793 C.3         1 GSH       0.0441
      8 CD1         2.8972   38.0390   -1.5029 C.2         1 GSH       0.1785
      9 OE1         3.3015   36.9401   -1.8908 O.2         1 GSH      -0.3969
     10 N2          1.7841   38.1419   -0.7695 N.am        1 GSH      -0.2648
     11 CA2         0.8958   37.0857   -0.3561 C.3         1 GSH       0.1395
     12 C2          1.5550   35.7783   -0.2559 C.2         1 GSH       0.2039
     13 O2          1.0688   34.7843   -0.7856 O.2         1 GSH      -0.3944
     14 CB2        -0.4214   37.1169   -1.2025 C.3         1 GSH       0.0311
     15 SG2        -1.5147   38.5062   -0.7941 S.3         1 GSH      -0.1735
     16 N3          2.7092   35.6951    0.3873 N.am        1 GSH      -0.2722
     17 CA3         3.5660   34.5557    0.4801 C.3         1 GSH       0.0833
     18 C3          4.5406   34.6344   -0.6130 C.2         1 GSH       0.0570
     19 O31         4.1642   34.3516   -1.8800 O.co2       1 GSH      -0.5669
     20 O32         5.8210   35.0008   -0.3859 O.co2       1 GSH      -0.5669
     21 H1          5.6555   37.7305   -0.9808 H           1 GSH       0.2010
     22 H2          6.7737   38.9207   -1.3143 H           1 GSH       0.2010
     23 H3          7.1049   37.3197   -1.6776 H           1 GSH       0.2010
     24 H4          5.3548   37.2490   -3.2661 H           1 GSH       0.1026
     25 H5          4.0751   39.1731   -3.9195 H           1 GSH       0.0363
     26 H6          5.0982   40.2799   -3.0077 H           1 GSH       0.0363
     27 H7          2.9298   40.0594   -1.9456 H           1 GSH       0.0505
     28 H8          4.2124   39.5192   -0.8853 H           1 GSH       0.0505
     29 H9          1.5191   39.0445   -0.4992 H           1 GSH       0.1883
     30 H10         0.5971   37.3216    0.6672 H           1 GSH       0.0808
     31 H11        -0.9993   36.1994   -1.0464 H           1 GSH       0.0422
     32 H12        -0.1756   37.1875   -2.2684 H           1 GSH       0.0422
     33 H13        -1.7440   38.0466    0.4671 H           1 GSH       0.1019
     34 H14         3.0671   36.5272    0.7338 H           1 GSH       0.1873
     35 H15         3.0297   33.6068    0.4247 H           1 GSH       0.0689
     36 H16         4.0849   34.5885    1.4411 H           1 GSH       0.0689
@<TRIPOS>BOND
     1     1     2   1
     2     2     3   1
     3     2     6   1
     4     3     4  ar
     5     3     5  ar
     6     6     7   1
     7     7     8   1
     8     8     9   2
     9     8    10  am
    10    10    11   1
    11    11    12   1
    12    11    14   1
    13    12    13   2
    14    12    16  am
    15    14    15   1
    16    16    17   1
    17    17    18   1
    18    18    19  ar
    19    18    20  ar
    20     1    21   1
    21     1    22   1
    22     1    23   1
    23     2    24   1
    24     6    25   1
    25     6    26   1
    26     7    27   1
    27     7    28   1
    28    10    29   1
    29    11    30   1
    30    14    31   1
    31    14    32   1
    32    15    33   1
    33    16    34   1
    34    17    35   1
    35    17    36   1
@<TRIPOS>SUBSTRUCTURE
     1  GSH      2

