@<TRIPOS>MOLECULE
1lbk_ligand_047
    36    35
SMALL
GAST_HUCK
****
This file was generated by PARSER (from files_GN.cpp)

@<TRIPOS>ATOM
      1 N1          0.5877   42.7705   -0.1950 N.4         1 GSH       0.2328
      2 CA1         0.7256   41.8747    0.9604 C.3         1 GSH       0.0304
      3 C1          0.5449   42.6932    2.1913 C.2         1 GSH       0.0846
      4 O11         0.7258   42.2106    3.4387 O.co2       1 GSH      -0.5643
      5 O12         0.2810   44.0099    2.0816 O.co2       1 GSH      -0.5643
      6 CB1         2.0843   41.0922    0.8929 C.3         1 GSH       0.0193
      7 CG1         2.0651   39.7646    0.0692 C.3         1 GSH       0.0441
      8 CD1         2.7669   39.8525   -1.1985 C.2         1 GSH       0.1785
      9 OE1         2.4222   40.7015   -2.0052 O.2         1 GSH      -0.3969
     10 N2          3.7835   39.0431   -1.4686 N.am        1 GSH      -0.2648
     11 CA2         4.5521   38.9923   -2.6826 C.3         1 GSH       0.1395
     12 C2          5.5318   37.9046   -2.5430 C.2         1 GSH       0.2039
     13 O2          5.2659   36.8142   -3.0376 O.2         1 GSH      -0.3944
     14 CB2         5.2044   40.3475   -3.1191 C.3         1 GSH       0.0311
     15 SG2         5.2613   41.6622   -1.8679 S.3         1 GSH      -0.1735
     16 N3          6.6586   38.0997   -1.8745 N.am        1 GSH      -0.2722
     17 CA3         7.7274   37.1636   -1.7204 C.3         1 GSH       0.0833
     18 C3          8.4166   36.8745   -2.9944 C.2         1 GSH       0.0570
     19 O31         9.7667   36.7960   -3.0445 O.co2       1 GSH      -0.5669
     20 O32         7.7154   36.5365   -4.1008 O.co2       1 GSH      -0.5669
     21 H1          0.6867   42.2379   -1.0577 H           1 GSH       0.2010
     22 H2          1.3068   43.4985   -0.1530 H           1 GSH       0.2010
     23 H3         -0.3313   43.2125   -0.1752 H           1 GSH       0.2010
     24 H4         -0.0941   41.1563    0.9419 H           1 GSH       0.1026
     25 H5          2.3741   40.8386    1.9197 H           1 GSH       0.0363
     26 H6          2.8574   41.7550    0.5001 H           1 GSH       0.0363
     27 H7          1.0393   39.4291   -0.1118 H           1 GSH       0.0505
     28 H8          2.5275   38.9781    0.6749 H           1 GSH       0.0505
     29 H9          3.9675   38.3562   -0.8153 H           1 GSH       0.1883
     30 H10         3.8678   38.7168   -3.4858 H           1 GSH       0.0808
     31 H11         4.6691   40.7328   -3.9937 H           1 GSH       0.0422
     32 H12         6.2335   40.1694   -3.4533 H           1 GSH       0.0422
     33 H13         4.4641   42.5214   -2.5811 H           1 GSH       0.1019
     34 H14         6.7703   38.9591   -1.4469 H           1 GSH       0.1873
     35 H15         7.3752   36.2281   -1.2801 H           1 GSH       0.0689
     36 H16         8.4502   37.6101   -1.0323 H           1 GSH       0.0689
@<TRIPOS>BOND
     1     1     2   1
     2     2     3   1
     3     2     6   1
     4     3     4  ar
     5     3     5  ar
     6     6     7   1
     7     7     8   1
     8     8     9   2
     9     8    10  am
    10    10    11   1
    11    11    12   1
    12    11    14   1
    13    12    13   2
    14    12    16  am
    15    14    15   1
    16    16    17   1
    17    17    18   1
    18    18    19  ar
    19    18    20  ar
    20     1    21   1
    21     1    22   1
    22     1    23   1
    23     2    24   1
    24     6    25   1
    25     6    26   1
    26     7    27   1
    27     7    28   1
    28    10    29   1
    29    11    30   1
    30    14    31   1
    31    14    32   1
    32    15    33   1
    33    16    34   1
    34    17    35   1
    35    17    36   1
@<TRIPOS>SUBSTRUCTURE
     1  GSH      2

