@<TRIPOS>MOLECULE
1lbk_ligand_009
    36    35
SMALL
GAST_HUCK
****
This file was generated by PARSER (from files_GN.cpp)

@<TRIPOS>ATOM
      1 N1          2.7251   35.2112    1.0976 N.4         1 GSH       0.2328
      2 CA1         2.0469   34.8984   -0.1665 C.3         1 GSH       0.0304
      3 C1          3.0756   34.4337   -1.1242 C.2         1 GSH       0.0846
      4 O11         2.7752   33.4718   -2.0362 O.co2       1 GSH      -0.5643
      5 O12         4.1598   35.2094   -1.3724 O.co2       1 GSH      -0.5643
      6 CB1         1.1765   36.0658   -0.7513 C.3         1 GSH       0.0193
      7 CG1         0.8559   37.3069    0.1432 C.3         1 GSH       0.0441
      8 CD1         1.3319   38.5597   -0.4203 C.2         1 GSH       0.1785
      9 OE1         0.5622   39.2265   -1.1048 O.2         1 GSH      -0.3969
     10 N2          2.5916   38.9435   -0.2216 N.am        1 GSH      -0.2648
     11 CA2         3.2566   40.1099   -0.7459 C.3         1 GSH       0.1395
     12 C2          2.4488   41.3124   -0.5707 C.2         1 GSH       0.2039
     13 O2          2.3873   42.1747   -1.4503 O.2         1 GSH      -0.3944
     14 CB2         3.7398   39.7918   -2.2015 C.3         1 GSH       0.0311
     15 SG2         4.9597   40.9556   -2.8663 S.3         1 GSH      -0.1735
     16 N3          1.7112   41.4368    0.5330 N.am        1 GSH      -0.2722
     17 CA3         0.6438   42.3622    0.7594 C.3         1 GSH       0.0833
     18 C3          0.8631   43.0857    2.0176 C.2         1 GSH       0.0570
     19 O31         1.0818   42.4102    3.1712 O.co2       1 GSH      -0.5669
     20 O32         1.0506   44.4212    1.9922 O.co2       1 GSH      -0.5669
     21 H1          2.0369   35.3495    1.8360 H           1 GSH       0.2010
     22 H2          3.2747   36.0614    0.9862 H           1 GSH       0.2010
     23 H3          3.3431   34.4363    1.3759 H           1 GSH       0.2010
     24 H4          1.3971   34.0467    0.0475 H           1 GSH       0.1026
     25 H5          0.2207   35.6198   -1.0480 H           1 GSH       0.0363
     26 H6          1.6383   36.4130   -1.6837 H           1 GSH       0.0363
     27 H7          1.2598   37.2076    1.1543 H           1 GSH       0.0505
     28 H8         -0.2307   37.3728    0.2886 H           1 GSH       0.0505
     29 H9          3.1456   38.3575    0.3133 H           1 GSH       0.1883
     30 H10         4.1572   40.2383   -0.1370 H           1 GSH       0.0808
     31 H11         2.8805   39.7859   -2.8804 H           1 GSH       0.0422
     32 H12         4.1921   38.7940   -2.2288 H           1 GSH       0.0422
     33 H13         5.9535   40.4656   -2.0797 H           1 GSH       0.1019
     34 H14         1.8307   40.7437    1.2043 H           1 GSH       0.1873
     35 H15        -0.2810   41.7899    0.8552 H           1 GSH       0.0689
     36 H16         0.5177   43.0772   -0.0646 H           1 GSH       0.0689
@<TRIPOS>BOND
     1     1     2   1
     2     2     3   1
     3     2     6   1
     4     3     4  ar
     5     3     5  ar
     6     6     7   1
     7     7     8   1
     8     8     9   2
     9     8    10  am
    10    10    11   1
    11    11    12   1
    12    11    14   1
    13    12    13   2
    14    12    16  am
    15    14    15   1
    16    16    17   1
    17    17    18   1
    18    18    19  ar
    19    18    20  ar
    20     1    21   1
    21     1    22   1
    22     1    23   1
    23     2    24   1
    24     6    25   1
    25     6    26   1
    26     7    27   1
    27     7    28   1
    28    10    29   1
    29    11    30   1
    30    14    31   1
    31    14    32   1
    32    15    33   1
    33    16    34   1
    34    17    35   1
    35    17    36   1
@<TRIPOS>SUBSTRUCTURE
     1  GSH      2

