@<TRIPOS>MOLECULE
1lbk_ligand_052
    36    35
SMALL
GAST_HUCK
****
This file was generated by PARSER (from files_GN.cpp)

@<TRIPOS>ATOM
      1 N1          6.0007   38.4236   -1.6087 N.4         1 GSH       0.2328
      2 CA1         5.0166   39.3814   -2.1426 C.3         1 GSH       0.0304
      3 C1          5.6681   40.3324   -3.0602 C.2         1 GSH       0.0846
      4 O11         6.8760   40.0808   -3.6168 O.co2       1 GSH      -0.5643
      5 O12         4.9737   41.3997   -3.5294 O.co2       1 GSH      -0.5643
      6 CB1         4.2446   40.0992   -0.9781 C.3         1 GSH       0.0193
      7 CG1         2.8174   39.5304   -0.7292 C.3         1 GSH       0.0441
      8 CD1         1.9436   40.4939   -0.0834 C.2         1 GSH       0.1785
      9 OE1         2.3213   41.0628    0.9462 O.2         1 GSH      -0.3969
     10 N2          0.7902   40.8142   -0.6612 N.am        1 GSH      -0.2648
     11 CA2        -0.2189   41.7421   -0.2139 C.3         1 GSH       0.1395
     12 C2         -1.3153   41.5822   -1.1590 C.2         1 GSH       0.2039
     13 O2         -1.4439   42.3582   -2.1067 O.2         1 GSH      -0.3944
     14 CB2         0.3165   43.2103   -0.0838 C.3         1 GSH       0.0311
     15 SG2         0.7822   43.7028    1.5995 S.3         1 GSH      -0.1735
     16 N3         -2.0276   40.4653   -1.1085 N.am        1 GSH      -0.2722
     17 CA3        -3.0650   40.0563   -1.9963 C.3         1 GSH       0.0833
     18 C3         -4.3290   39.9979   -1.2471 C.2         1 GSH       0.0570
     19 O31        -5.3963   40.7295   -1.6468 O.co2       1 GSH      -0.5669
     20 O32        -4.4305   39.2453   -0.1321 O.co2       1 GSH      -0.5669
     21 H1          5.5499   37.7900   -0.9502 H           1 GSH       0.2010
     22 H2          6.7327   38.9490   -1.1290 H           1 GSH       0.2010
     23 H3          6.4115   37.8890   -2.3812 H           1 GSH       0.2010
     24 H4          4.3175   38.7993   -2.7525 H           1 GSH       0.1026
     25 H5          4.1571   41.1734   -1.2087 H           1 GSH       0.0363
     26 H6          4.8265   40.0346   -0.0517 H           1 GSH       0.0363
     27 H7          2.8788   38.6439   -0.0998 H           1 GSH       0.0505
     28 H8          2.3745   39.2290   -1.6865 H           1 GSH       0.0505
     29 H9          0.5870   40.3564   -1.4956 H           1 GSH       0.1883
     30 H10        -0.5966   41.4169    0.7659 H           1 GSH       0.0808
     31 H11        -0.4343   43.9454   -0.3860 H           1 GSH       0.0422
     32 H12         1.1796   43.3563   -0.7353 H           1 GSH       0.0422
     33 H13         1.1799   42.4492    2.0132 H           1 GSH       0.1019
     34 H14        -1.8259   39.8505   -0.3774 H           1 GSH       0.1873
     35 H15        -2.8327   39.0605   -2.3775 H           1 GSH       0.0689
     36 H16        -3.1683   40.7244   -2.8512 H           1 GSH       0.0689
@<TRIPOS>BOND
     1     1     2   1
     2     2     3   1
     3     2     6   1
     4     3     4  ar
     5     3     5  ar
     6     6     7   1
     7     7     8   1
     8     8     9   2
     9     8    10  am
    10    10    11   1
    11    11    12   1
    12    11    14   1
    13    12    13   2
    14    12    16  am
    15    14    15   1
    16    16    17   1
    17    17    18   1
    18    18    19  ar
    19    18    20  ar
    20     1    21   1
    21     1    22   1
    22     1    23   1
    23     2    24   1
    24     6    25   1
    25     6    26   1
    26     7    27   1
    27     7    28   1
    28    10    29   1
    29    11    30   1
    30    14    31   1
    31    14    32   1
    32    15    33   1
    33    16    34   1
    34    17    35   1
    35    17    36   1
@<TRIPOS>SUBSTRUCTURE
     1  GSH      2

