@<TRIPOS>MOLECULE
1lbk_ligand_015
    36    35
SMALL
GAST_HUCK
****
This file was generated by PARSER (from files_GN.cpp)

@<TRIPOS>ATOM
      1 N1          2.4818   35.4131    0.8435 N.4         1 GSH       0.2328
      2 CA1         2.9955   34.1061    0.3937 C.3         1 GSH       0.0304
      3 C1          4.1954   33.7725    1.1852 C.2         1 GSH       0.0846
      4 O11         4.2392   32.6405    1.9318 O.co2       1 GSH      -0.5643
      5 O12         5.3029   34.5485    1.1481 O.co2       1 GSH      -0.5643
      6 CB1         3.1711   34.0814   -1.1619 C.3         1 GSH       0.0193
      7 CG1         4.3793   33.3016   -1.7667 C.3         1 GSH       0.0441
      8 CD1         5.6449   34.0159   -1.6726 C.2         1 GSH       0.1785
      9 OE1         6.5414   33.5947   -0.9420 O.2         1 GSH      -0.3969
     10 N2          5.7733   35.1503   -2.3511 N.am        1 GSH      -0.2648
     11 CA2         6.8401   36.1028   -2.2787 C.3         1 GSH       0.1395
     12 C2          6.2896   37.3940   -2.7099 C.2         1 GSH       0.2039
     13 O2          6.2262   37.6661   -3.9064 O.2         1 GSH      -0.3944
     14 CB2         8.1234   35.6693   -3.0463 C.3         1 GSH       0.0311
     15 SG2         7.8510   35.0433   -4.7319 S.3         1 GSH      -0.1735
     16 N3          5.7181   38.2023   -1.8168 N.am        1 GSH      -0.2722
     17 CA3         4.9846   39.4029   -2.0899 C.3         1 GSH       0.0833
     18 C3          5.6491   40.3402   -3.0122 C.2         1 GSH       0.0570
     19 O31         6.8665   40.0681   -3.5443 O.co2       1 GSH      -0.5669
     20 O32         5.0358   41.5115   -3.3226 O.co2       1 GSH      -0.5669
     21 H1          1.6541   35.6612    0.2975 H           1 GSH       0.2010
     22 H2          3.1970   36.1355    0.7077 H           1 GSH       0.2010
     23 H3          2.2328   35.3740    1.8328 H           1 GSH       0.2010
     24 H4          2.2264   33.3703    0.6515 H           1 GSH       0.1026
     25 H5          3.1839   35.1014   -1.5407 H           1 GSH       0.0363
     26 H6          2.2721   33.6218   -1.5790 H           1 GSH       0.0363
     27 H7          4.1941   33.1178   -2.8310 H           1 GSH       0.0505
     28 H8          4.4579   32.3184   -1.2883 H           1 GSH       0.0505
     29 H9          5.0078   35.4110   -2.8980 H           1 GSH       0.1883
     30 H10         7.1261   36.2094   -1.2280 H           1 GSH       0.0808
     31 H11         8.6320   34.8813   -2.4782 H           1 GSH       0.0422
     32 H12         8.8171   36.5185   -3.1157 H           1 GSH       0.0422
     33 H13         7.4074   33.8295   -4.3074 H           1 GSH       0.1019
     34 H14         5.7136   37.9072   -0.8895 H           1 GSH       0.1873
     35 H15         4.8221   39.9229   -1.1419 H           1 GSH       0.0689
     36 H16         4.0109   39.1361   -2.5167 H           1 GSH       0.0689
@<TRIPOS>BOND
     1     1     2   1
     2     2     3   1
     3     2     6   1
     4     3     4  ar
     5     3     5  ar
     6     6     7   1
     7     7     8   1
     8     8     9   2
     9     8    10  am
    10    10    11   1
    11    11    12   1
    12    11    14   1
    13    12    13   2
    14    12    16  am
    15    14    15   1
    16    16    17   1
    17    17    18   1
    18    18    19  ar
    19    18    20  ar
    20     1    21   1
    21     1    22   1
    22     1    23   1
    23     2    24   1
    24     6    25   1
    25     6    26   1
    26     7    27   1
    27     7    28   1
    28    10    29   1
    29    11    30   1
    30    14    31   1
    31    14    32   1
    32    15    33   1
    33    16    34   1
    34    17    35   1
    35    17    36   1
@<TRIPOS>SUBSTRUCTURE
     1  GSH      2

