@<TRIPOS>MOLECULE
1lbk_ligand_000
    36    35
SMALL
GAST_HUCK
****
This file was generated by PARSER (from files_GN.cpp)

@<TRIPOS>ATOM
      1 N1         12.3431   39.6232   -2.5377 N.4         1 GSH       0.2328
      2 CA1        12.0156   40.1491   -1.1989 C.3         1 GSH       0.0304
      3 C1         13.0266   39.6890   -0.2225 C.2         1 GSH       0.0846
      4 O11        13.2016   38.3750    0.0497 O.co2       1 GSH      -0.5643
      5 O12        13.8389   40.5743    0.4035 O.co2       1 GSH      -0.5643
      6 CB1        10.5565   39.8362   -0.7656 C.3         1 GSH       0.0193
      7 CG1        10.1256   38.3339   -0.7901 C.3         1 GSH       0.0441
      8 CD1         9.3031   37.9946   -1.9346 C.2         1 GSH       0.1785
      9 OE1         9.7598   38.1355   -3.0668 O.2         1 GSH      -0.3969
     10 N2          8.0476   37.6068   -1.7353 N.am        1 GSH      -0.2648
     11 CA2         7.0782   37.3064   -2.7355 C.3         1 GSH       0.1395
     12 C2          6.1879   38.4515   -2.8147 C.2         1 GSH       0.2039
     13 O2          6.2064   39.1174   -3.8554 O.2         1 GSH      -0.3944
     14 CB2         6.3936   35.9501   -2.4360 C.3         1 GSH       0.0311
     15 SG2         7.5143   34.5449   -2.6586 S.3         1 GSH      -0.1735
     16 N3          5.4241   38.8490   -1.7943 N.am        1 GSH      -0.2722
     17 CA3         4.4020   39.8818   -1.8511 C.3         1 GSH       0.0833
     18 C3          4.8758   41.2254   -2.2480 C.2         1 GSH       0.0570
     19 O31         4.1452   42.3341   -1.9328 O.co2       1 GSH      -0.5669
     20 O32         5.6593   41.3147   -3.3675 O.co2       1 GSH      -0.5669
     21 H1         11.7027   40.0071   -3.2344 H           1 GSH       0.2010
     22 H2         12.2638   38.6053   -2.5380 H           1 GSH       0.2010
     23 H3         13.2999   39.8849   -2.7882 H           1 GSH       0.2010
     24 H4         12.1067   41.2346   -1.2780 H           1 GSH       0.1026
     25 H5          9.8761   40.4217   -1.3908 H           1 GSH       0.0363
     26 H6         10.4283   40.2125    0.2495 H           1 GSH       0.0363
     27 H7          9.5813   38.1204    0.1365 H           1 GSH       0.0505
     28 H8         10.9872   37.6681   -0.7968 H           1 GSH       0.0505
     29 H9          7.7316   37.5291   -0.8136 H           1 GSH       0.1883
     30 H10         7.5402   37.1865   -3.7190 H           1 GSH       0.0808
     31 H11         5.5588   35.7964   -3.1244 H           1 GSH       0.0422
     32 H12         6.0080   35.9227   -1.4171 H           1 GSH       0.0422
     33 H13         8.5158   35.0168   -1.8628 H           1 GSH       0.1019
     34 H14         5.5158   38.4034   -0.9295 H           1 GSH       0.1873
     35 H15         3.9254   39.9571   -0.8521 H           1 GSH       0.0689
     36 H16         3.6215   39.5752   -2.5668 H           1 GSH       0.0689
@<TRIPOS>BOND
     1     1     2   1
     2     2     3   1
     3     2     6   1
     4     3     4  ar
     5     3     5  ar
     6     6     7   1
     7     7     8   1
     8     8     9   2
     9     8    10  am
    10    10    11   1
    11    11    12   1
    12    11    14   1
    13    12    13   2
    14    12    16  am
    15    14    15   1
    16    16    17   1
    17    17    18   1
    18    18    19  ar
    19    18    20  ar
    20     1    21   1
    21     1    22   1
    22     1    23   1
    23     2    24   1
    24     6    25   1
    25     6    26   1
    26     7    27   1
    27     7    28   1
    28    10    29   1
    29    11    30   1
    30    14    31   1
    31    14    32   1
    32    15    33   1
    33    16    34   1
    34    17    35   1
    35    17    36   1
@<TRIPOS>SUBSTRUCTURE
     1  GSH      2

