@<TRIPOS>MOLECULE
1lbk_ligand_066
    36    35
SMALL
GAST_HUCK
****
This file was generated by PARSER (from files_GN.cpp)

@<TRIPOS>ATOM
      1 N1          0.6156   34.6051   -0.9073 N.4         1 GSH       0.2328
      2 CA1         0.5983   36.0017   -0.4530 C.3         1 GSH       0.0304
      3 C1         -0.0719   36.8332   -1.4628 C.2         1 GSH       0.0846
      4 O11         0.6695   37.4963   -2.3945 O.co2       1 GSH      -0.5643
      5 O12        -1.3901   36.6170   -1.7006 O.co2       1 GSH      -0.5643
      6 CB1         2.0556   36.4487   -0.1104 C.3         1 GSH       0.0193
      7 CG1         2.1589   37.8231    0.6345 C.3         1 GSH       0.0441
      8 CD1         2.9724   38.8107   -0.0465 C.2         1 GSH       0.1785
      9 OE1         4.0507   39.1499    0.4091 O.2         1 GSH      -0.3969
     10 N2          2.4755   39.3593   -1.1484 N.am        1 GSH      -0.2648
     11 CA2         3.0635   40.4248   -1.9157 C.3         1 GSH       0.1395
     12 C2          4.3528   40.1504   -2.5639 C.2         1 GSH       0.2039
     13 O2          4.9020   41.0541   -3.1879 O.2         1 GSH      -0.3944
     14 CB2         3.0161   41.7532   -1.1009 C.3         1 GSH       0.0311
     15 SG2         1.3296   42.4023   -0.9649 S.3         1 GSH      -0.1735
     16 N3          4.7850   38.8931   -2.7109 N.am        1 GSH      -0.2722
     17 CA3         5.8832   38.4551   -3.5291 C.3         1 GSH       0.0833
     18 C3          7.1834   38.9366   -3.0305 C.2         1 GSH       0.0570
     19 O31         7.6764   40.1151   -3.4702 O.co2       1 GSH      -0.5669
     20 O32         7.9329   38.1739   -2.2046 O.co2       1 GSH      -0.5669
     21 H1          1.0484   34.0176   -0.1924 H           1 GSH       0.2010
     22 H2          1.1454   34.5328   -1.7877 H           1 GSH       0.2010
     23 H3         -0.3498   34.3002   -1.0641 H           1 GSH       0.2010
     24 H4          0.0183   36.0552    0.4627 H           1 GSH       0.1026
     25 H5          2.6708   36.4543   -1.0178 H           1 GSH       0.0363
     26 H6          2.4936   35.6768    0.5533 H           1 GSH       0.0363
     27 H7          2.5739   37.6500    1.6435 H           1 GSH       0.0505
     28 H8          1.1559   38.2436    0.8063 H           1 GSH       0.0505
     29 H9          1.6180   38.9782   -1.5001 H           1 GSH       0.1883
     30 H10         2.3767   40.5438   -2.7554 H           1 GSH       0.0808
     31 H11         3.6230   42.5480   -1.5765 H           1 GSH       0.0422
     32 H12         3.4156   41.6051   -0.0931 H           1 GSH       0.0422
     33 H13         1.7243   43.5354   -0.3345 H           1 GSH       0.1019
     34 H14         4.2657   38.1937   -2.2867 H           1 GSH       0.1873
     35 H15         5.7406   38.7987   -4.5554 H           1 GSH       0.0689
     36 H16         5.8830   37.3706   -3.5440 H           1 GSH       0.0689
@<TRIPOS>BOND
     1     1     2   1
     2     2     3   1
     3     2     6   1
     4     3     4  ar
     5     3     5  ar
     6     6     7   1
     7     7     8   1
     8     8     9   2
     9     8    10  am
    10    10    11   1
    11    11    12   1
    12    11    14   1
    13    12    13   2
    14    12    16  am
    15    14    15   1
    16    16    17   1
    17    17    18   1
    18    18    19  ar
    19    18    20  ar
    20     1    21   1
    21     1    22   1
    22     1    23   1
    23     2    24   1
    24     6    25   1
    25     6    26   1
    26     7    27   1
    27     7    28   1
    28    10    29   1
    29    11    30   1
    30    14    31   1
    31    14    32   1
    32    15    33   1
    33    16    34   1
    34    17    35   1
    35    17    36   1
@<TRIPOS>SUBSTRUCTURE
     1  GSH      2

