@<TRIPOS>MOLECULE
1lbk_ligand_036
    36    35
SMALL
GAST_HUCK
****
This file was generated by PARSER (from files_GN.cpp)

@<TRIPOS>ATOM
      1 N1          4.2718   39.4811   -1.3513 N.4         1 GSH       0.2328
      2 CA1         5.3810   38.9976   -2.1891 C.3         1 GSH       0.0304
      3 C1          5.8540   40.0514   -3.1059 C.2         1 GSH       0.0846
      4 O11         7.0729   39.9300   -3.6773 O.co2       1 GSH      -0.5643
      5 O12         5.1840   41.2157   -3.3005 O.co2       1 GSH      -0.5643
      6 CB1         4.9735   37.7122   -2.9692 C.3         1 GSH       0.0193
      7 CG1         5.0915   36.3771   -2.1612 C.3         1 GSH       0.0441
      8 CD1         3.8406   35.7511   -1.7663 C.2         1 GSH       0.1785
      9 OE1         3.4618   34.7620   -2.3918 O.2         1 GSH      -0.3969
     10 N2          3.1927   36.1663   -0.6860 N.am        1 GSH      -0.2648
     11 CA2         2.0102   35.6124   -0.0738 C.3         1 GSH       0.1395
     12 C2          2.1669   34.1634    0.0968 C.2         1 GSH       0.2039
     13 O2          1.8122   33.4018   -0.7985 O.2         1 GSH      -0.3944
     14 CB2         0.7084   36.0454   -0.8160 C.3         1 GSH       0.0311
     15 SG2         0.1341   37.6867   -0.3475 S.3         1 GSH      -0.1735
     16 N3          2.7496   33.6617    1.1909 N.am        1 GSH      -0.2722
     17 CA3         3.1866   32.3092    1.4202 C.3         1 GSH       0.0833
     18 C3          2.3370   31.2122    0.9107 C.2         1 GSH       0.0570
     19 O31         1.2489   30.7856    1.6016 O.co2       1 GSH      -0.5669
     20 O32         2.4887   30.7823   -0.3744 O.co2       1 GSH      -0.5669
     21 H1          4.0895   38.8028   -0.6152 H           1 GSH       0.2010
     22 H2          3.4323   39.6069   -1.9162 H           1 GSH       0.2010
     23 H3          4.5348   40.3707   -0.9237 H           1 GSH       0.2010
     24 H4          6.2130   38.7526   -1.5212 H           1 GSH       0.1026
     25 H5          5.6329   37.6162   -3.8415 H           1 GSH       0.0363
     26 H6          3.9577   37.8302   -3.3463 H           1 GSH       0.0363
     27 H7          5.7222   36.5320   -1.2725 H           1 GSH       0.0505
     28 H8          5.6474   35.6479   -2.7759 H           1 GSH       0.0505
     29 H9          3.5570   36.9500   -0.2479 H           1 GSH       0.1883
     30 H10         1.9636   36.0420    0.9301 H           1 GSH       0.0808
     31 H11        -0.0990   35.3443   -0.6226 H           1 GSH       0.0422
     32 H12         0.8877   36.0620   -1.8854 H           1 GSH       0.0422
     33 H13        -0.6206   37.2216    0.6901 H           1 GSH       0.1019
     34 H14         3.0154   34.2917    1.8842 H           1 GSH       0.1873
     35 H15         3.2793   32.1562    2.4981 H           1 GSH       0.0689
     36 H16         4.1803   32.2216    0.9816 H           1 GSH       0.0689
@<TRIPOS>BOND
     1     1     2   1
     2     2     3   1
     3     2     6   1
     4     3     4  ar
     5     3     5  ar
     6     6     7   1
     7     7     8   1
     8     8     9   2
     9     8    10  am
    10    10    11   1
    11    11    12   1
    12    11    14   1
    13    12    13   2
    14    12    16  am
    15    14    15   1
    16    16    17   1
    17    17    18   1
    18    18    19  ar
    19    18    20  ar
    20     1    21   1
    21     1    22   1
    22     1    23   1
    23     2    24   1
    24     6    25   1
    25     6    26   1
    26     7    27   1
    27     7    28   1
    28    10    29   1
    29    11    30   1
    30    14    31   1
    31    14    32   1
    32    15    33   1
    33    16    34   1
    34    17    35   1
    35    17    36   1
@<TRIPOS>SUBSTRUCTURE
     1  GSH      2

