@<TRIPOS>MOLECULE
1lbk_ligand_042
    36    35
SMALL
GAST_HUCK
****
This file was generated by PARSER (from files_GN.cpp)

@<TRIPOS>ATOM
      1 N1          1.9112   36.7454    0.9115 N.4         1 GSH       0.2328
      2 CA1         1.7259   37.4726   -0.3683 C.3         1 GSH       0.0304
      3 C1          0.2753   37.6125   -0.6200 C.2         1 GSH       0.0846
      4 O11        -0.2862   38.8460   -0.6955 O.co2       1 GSH      -0.5643
      5 O12        -0.5139   36.5308   -0.8255 O.co2       1 GSH      -0.5643
      6 CB1         2.4866   36.7537   -1.5415 C.3         1 GSH       0.0193
      7 CG1         3.7932   37.4395   -2.0629 C.3         1 GSH       0.0441
      8 CD1         3.7523   38.8830   -2.0841 C.2         1 GSH       0.1785
      9 OE1         3.2265   39.4661   -3.0269 O.2         1 GSH      -0.3969
     10 N2          4.1835   39.5622   -1.0325 N.am        1 GSH      -0.2648
     11 CA2         4.0766   40.9599   -0.7411 C.3         1 GSH       0.1395
     12 C2          2.6619   41.3386   -0.5739 C.2         1 GSH       0.2039
     13 O2          1.9682   41.5277   -1.5743 O.2         1 GSH      -0.3944
     14 CB2         4.8691   41.9731   -1.6468 C.3         1 GSH       0.0311
     15 SG2         5.6556   41.2735   -3.0848 S.3         1 GSH      -0.1735
     16 N3          2.0994   41.3970    0.6388 N.am        1 GSH      -0.2722
     17 CA3         0.7652   41.8607    0.9364 C.3         1 GSH       0.0833
     18 C3          0.8481   42.8174    2.0431 C.2         1 GSH       0.0570
     19 O31         1.2014   42.3888    3.2821 O.co2       1 GSH      -0.5669
     20 O32         0.8438   44.1416    1.8060 O.co2       1 GSH      -0.5669
     21 H1          2.9098   36.7937    1.1506 H           1 GSH       0.2010
     22 H2          1.6118   35.7624    0.8161 H           1 GSH       0.2010
     23 H3          1.3666   37.2036    1.6505 H           1 GSH       0.2010
     24 H4          2.1462   38.4690   -0.2106 H           1 GSH       0.1026
     25 H5          1.8039   36.6085   -2.4098 H           1 GSH       0.0363
     26 H6          2.7674   35.7414   -1.2057 H           1 GSH       0.0363
     27 H7          4.0029   37.0856   -3.0716 H           1 GSH       0.0505
     28 H8          4.6236   37.0961   -1.4329 H           1 GSH       0.0505
     29 H9          4.5680   39.0317   -0.3290 H           1 GSH       0.1883
     30 H10         4.5189   41.0352    0.2452 H           1 GSH       0.0808
     31 H11         5.6712   42.4348   -1.0640 H           1 GSH       0.0422
     32 H12         4.2417   42.7894   -2.0125 H           1 GSH       0.0422
     33 H13         6.5615   40.5498   -2.3657 H           1 GSH       0.1019
     34 H14         2.6475   41.1414    1.3954 H           1 GSH       0.1873
     35 H15         0.1408   41.0132    1.2291 H           1 GSH       0.0689
     36 H16         0.2816   42.3406    0.0762 H           1 GSH       0.0689
@<TRIPOS>BOND
     1     1     2   1
     2     2     3   1
     3     2     6   1
     4     3     4  ar
     5     3     5  ar
     6     6     7   1
     7     7     8   1
     8     8     9   2
     9     8    10  am
    10    10    11   1
    11    11    12   1
    12    11    14   1
    13    12    13   2
    14    12    16  am
    15    14    15   1
    16    16    17   1
    17    17    18   1
    18    18    19  ar
    19    18    20  ar
    20     1    21   1
    21     1    22   1
    22     1    23   1
    23     2    24   1
    24     6    25   1
    25     6    26   1
    26     7    27   1
    27     7    28   1
    28    10    29   1
    29    11    30   1
    30    14    31   1
    31    14    32   1
    32    15    33   1
    33    16    34   1
    34    17    35   1
    35    17    36   1
@<TRIPOS>SUBSTRUCTURE
     1  GSH      2

