@<TRIPOS>MOLECULE
1lbk_ligand_048
    36    35
SMALL
GAST_HUCK
****
This file was generated by PARSER (from files_GN.cpp)

@<TRIPOS>ATOM
      1 N1         -0.7131   41.5861    1.0139 N.4         1 GSH       0.2328
      2 CA1         0.5921   42.2417    0.8980 C.3         1 GSH       0.0304
      3 C1          0.7671   43.1314    2.0661 C.2         1 GSH       0.0846
      4 O11         0.9943   42.5795    3.2808 O.co2       1 GSH      -0.5643
      5 O12         1.0164   44.4513    1.9308 O.co2       1 GSH      -0.5643
      6 CB1         0.7299   42.9372   -0.4893 C.3         1 GSH       0.0193
      7 CG1         0.4801   42.0481   -1.7456 C.3         1 GSH       0.0441
      8 CD1         1.0802   40.7146   -1.7468 C.2         1 GSH       0.1785
      9 OE1         0.4105   39.7825   -2.1932 O.2         1 GSH      -0.3969
     10 N2          2.2848   40.5129   -1.2332 N.am        1 GSH      -0.2648
     11 CA2         3.0462   39.2969   -1.0538 C.3         1 GSH       0.1395
     12 C2          3.9194   39.0509   -2.1992 C.2         1 GSH       0.2039
     13 O2          3.5734   39.3963   -3.3273 O.2         1 GSH      -0.3944
     14 CB2         2.2720   38.0632   -0.4583 C.3         1 GSH       0.0311
     15 SG2         2.7058   36.4138   -1.0682 S.3         1 GSH      -0.1735
     16 N3          5.0935   38.4578   -2.0038 N.am        1 GSH      -0.2722
     17 CA3         6.0502   38.0792   -2.9962 C.3         1 GSH       0.0833
     18 C3          7.2562   38.9081   -2.8965 C.2         1 GSH       0.0570
     19 O31         8.1788   38.6609   -1.9399 O.co2       1 GSH      -0.5669
     20 O32         7.3100   40.0957   -3.5400 O.co2       1 GSH      -0.5669
     21 H1         -0.8030   40.8661    0.2956 H           1 GSH       0.2010
     22 H2         -1.4561   42.2769    0.8978 H           1 GSH       0.2010
     23 H3         -0.7874   41.1499    1.9318 H           1 GSH       0.2010
     24 H4          1.3601   41.4706    0.9819 H           1 GSH       0.1026
     25 H5          1.7399   43.3494   -0.5659 H           1 GSH       0.0363
     26 H6          0.0338   43.7807   -0.5338 H           1 GSH       0.0363
     27 H7          0.8693   42.5873   -2.6117 H           1 GSH       0.0505
     28 H8         -0.6038   41.9616   -1.8934 H           1 GSH       0.0505
     29 H9          2.7184   41.3188   -0.9090 H           1 GSH       0.1883
     30 H10         3.7357   39.6057   -0.2569 H           1 GSH       0.0808
     31 H11         1.1912   38.1708   -0.5969 H           1 GSH       0.0422
     32 H12         2.4316   38.0366    0.6219 H           1 GSH       0.0422
     33 H13         2.2258   36.6620   -2.3208 H           1 GSH       0.1019
     34 H14         5.3136   38.2309   -1.0849 H           1 GSH       0.1873
     35 H15         5.6533   38.1570   -4.0099 H           1 GSH       0.0689
     36 H16         6.3213   37.0320   -2.8312 H           1 GSH       0.0689
@<TRIPOS>BOND
     1     1     2   1
     2     2     3   1
     3     2     6   1
     4     3     4  ar
     5     3     5  ar
     6     6     7   1
     7     7     8   1
     8     8     9   2
     9     8    10  am
    10    10    11   1
    11    11    12   1
    12    11    14   1
    13    12    13   2
    14    12    16  am
    15    14    15   1
    16    16    17   1
    17    17    18   1
    18    18    19  ar
    19    18    20  ar
    20     1    21   1
    21     1    22   1
    22     1    23   1
    23     2    24   1
    24     6    25   1
    25     6    26   1
    26     7    27   1
    27     7    28   1
    28    10    29   1
    29    11    30   1
    30    14    31   1
    31    14    32   1
    32    15    33   1
    33    16    34   1
    34    17    35   1
    35    17    36   1
@<TRIPOS>SUBSTRUCTURE
     1  GSH      2

