@<TRIPOS>MOLECULE
1lbk_ligand_056
    36    35
SMALL
GAST_HUCK
****
This file was generated by PARSER (from files_GN.cpp)

@<TRIPOS>ATOM
      1 N1          5.6037   38.3894   -1.6915 N.4         1 GSH       0.2328
      2 CA1         4.7583   39.4290   -2.2981 C.3         1 GSH       0.0304
      3 C1          5.5742   40.3964   -3.0566 C.2         1 GSH       0.0846
      4 O11         6.8667   40.1334   -3.3854 O.co2       1 GSH      -0.5643
      5 O12         4.9828   41.4393   -3.6824 O.co2       1 GSH      -0.5643
      6 CB1         3.8938   40.1182   -1.1911 C.3         1 GSH       0.0193
      7 CG1         2.7099   39.2411   -0.6529 C.3         1 GSH       0.0441
      8 CD1         1.4624   39.9710   -0.5138 C.2         1 GSH       0.1785
      9 OE1         0.9778   40.1349    0.5968 O.2         1 GSH      -0.3969
     10 N2          0.9097   40.4886   -1.6037 N.am        1 GSH      -0.2648
     11 CA2        -0.2424   41.3311   -1.7591 C.3         1 GSH       0.1395
     12 C2         -0.1254   42.6068   -1.0630 C.2         1 GSH       0.2039
     13 O2          0.0361   43.6380   -1.7125 O.2         1 GSH      -0.3944
     14 CB2        -1.6197   40.6069   -1.5984 C.3         1 GSH       0.0311
     15 SG2        -2.3314   40.3819    0.0660 S.3         1 GSH      -0.1735
     16 N3         -0.1618   42.6453    0.2637 N.am        1 GSH      -0.2722
     17 CA3        -0.0568   43.7877    1.1105 C.3         1 GSH       0.0833
     18 C3          0.9342   43.5576    2.1646 C.2         1 GSH       0.0570
     19 O31         0.8160   42.4985    2.9939 O.co2       1 GSH      -0.5669
     20 O32         1.8767   44.4852    2.4338 O.co2       1 GSH      -0.5669
     21 H1          5.0351   37.7937   -1.0846 H           1 GSH       0.2010
     22 H2          6.3257   38.8451   -1.1279 H           1 GSH       0.2010
     23 H3          6.0391   37.8250   -2.4229 H           1 GSH       0.2010
     24 H4          4.0889   38.9488   -3.0175 H           1 GSH       0.1026
     25 H5          3.5061   41.0679   -1.5810 H           1 GSH       0.0363
     26 H6          4.5406   40.3902   -0.3504 H           1 GSH       0.0363
     27 H7          3.0081   38.8228    0.3165 H           1 GSH       0.0505
     28 H8          2.5201   38.3910   -1.3175 H           1 GSH       0.0505
     29 H9          1.4050   40.3542   -2.4157 H           1 GSH       0.1883
     30 H10        -0.2204   41.5621   -2.8311 H           1 GSH       0.0808
     31 H11        -1.5703   39.6034   -2.0580 H           1 GSH       0.0422
     32 H12        -2.3820   41.1701   -2.1690 H           1 GSH       0.0422
     33 H13        -1.6029   39.2555    0.3125 H           1 GSH       0.1019
     34 H14        -0.3190   41.8066    0.7194 H           1 GSH       0.1873
     35 H15        -1.0301   43.9458    1.5813 H           1 GSH       0.0689
     36 H16         0.2121   44.6819    0.5442 H           1 GSH       0.0689
@<TRIPOS>BOND
     1     1     2   1
     2     2     3   1
     3     2     6   1
     4     3     4  ar
     5     3     5  ar
     6     6     7   1
     7     7     8   1
     8     8     9   2
     9     8    10  am
    10    10    11   1
    11    11    12   1
    12    11    14   1
    13    12    13   2
    14    12    16  am
    15    14    15   1
    16    16    17   1
    17    17    18   1
    18    18    19  ar
    19    18    20  ar
    20     1    21   1
    21     1    22   1
    22     1    23   1
    23     2    24   1
    24     6    25   1
    25     6    26   1
    26     7    27   1
    27     7    28   1
    28    10    29   1
    29    11    30   1
    30    14    31   1
    31    14    32   1
    32    15    33   1
    33    16    34   1
    34    17    35   1
    35    17    36   1
@<TRIPOS>SUBSTRUCTURE
     1  GSH      2

