@<TRIPOS>MOLECULE
1lbk_ligand_027
    36    35
SMALL
GAST_HUCK
****
This file was generated by PARSER (from files_GN.cpp)

@<TRIPOS>ATOM
      1 N1          6.9205   33.9526  -11.6772 N.4         1 GSH       0.2328
      2 CA1         6.0800   33.8964  -10.4654 C.3         1 GSH       0.0304
      3 C1          4.6880   34.2162  -10.8484 C.2         1 GSH       0.0846
      4 O11         3.9291   33.2645  -11.4473 O.co2       1 GSH      -0.5643
      5 O12         4.2803   35.5009  -10.9874 O.co2       1 GSH      -0.5643
      6 CB1         6.6348   34.8564   -9.3709 C.3         1 GSH       0.0193
      7 CG1         7.7097   34.2107   -8.4499 C.3         1 GSH       0.0441
      8 CD1         8.3281   35.1738   -7.5550 C.2         1 GSH       0.1785
      9 OE1         8.7388   36.2136   -8.0406 O.2         1 GSH      -0.3969
     10 N2          8.5713   34.8666   -6.2787 N.am        1 GSH      -0.2648
     11 CA2         9.2293   35.6964   -5.2933 C.3         1 GSH       0.1395
     12 C2         10.5962   35.2710   -5.0481 C.2         1 GSH       0.2039
     13 O2         11.1306   35.5645   -3.9735 O.2         1 GSH      -0.3944
     14 CB2         8.2980   35.8041   -4.0417 C.3         1 GSH       0.0311
     15 SG2         8.0319   34.2460   -3.1602 S.3         1 GSH      -0.1735
     16 N3         11.3359   34.7258   -6.0114 N.am        1 GSH      -0.2722
     17 CA3        12.7503   34.5157   -6.0234 C.3         1 GSH       0.0833
     18 C3         13.2857   33.9251   -4.7852 C.2         1 GSH       0.0570
     19 O31        14.1536   34.6293   -4.0144 O.co2       1 GSH      -0.5669
     20 O32        12.8924   32.6930   -4.3674 O.co2       1 GSH      -0.5669
     21 H1          7.8928   33.7325  -11.4440 H           1 GSH       0.2010
     22 H2          6.8798   34.8942  -12.0673 H           1 GSH       0.2010
     23 H3          6.5798   33.2871  -12.3838 H           1 GSH       0.2010
     24 H4          6.0968   32.8693  -10.0857 H           1 GSH       0.1026
     25 H5          5.8076   35.1990   -8.7346 H           1 GSH       0.0363
     26 H6          7.0461   35.7339   -9.8748 H           1 GSH       0.0363
     27 H7          8.4999   33.7675   -9.0597 H           1 GSH       0.0505
     28 H8          7.2392   33.4051   -7.8859 H           1 GSH       0.0505
     29 H9          8.3077   33.9756   -5.9921 H           1 GSH       0.1883
     30 H10         9.3098   36.7190   -5.6813 H           1 GSH       0.0808
     31 H11         7.3202   36.1639   -4.3526 H           1 GSH       0.0422
     32 H12         8.7029   36.5425   -3.3423 H           1 GSH       0.0422
     33 H13         8.8682   34.5724   -2.1275 H           1 GSH       0.1019
     34 H14        10.8742   34.5348   -6.8452 H           1 GSH       0.1873
     35 H15        13.2430   35.4750   -6.2108 H           1 GSH       0.0689
     36 H16        12.9854   33.8536   -6.8513 H           1 GSH       0.0689
@<TRIPOS>BOND
     1     1     2   1
     2     2     3   1
     3     2     6   1
     4     3     4  ar
     5     3     5  ar
     6     6     7   1
     7     7     8   1
     8     8     9   2
     9     8    10  am
    10    10    11   1
    11    11    12   1
    12    11    14   1
    13    12    13   2
    14    12    16  am
    15    14    15   1
    16    16    17   1
    17    17    18   1
    18    18    19  ar
    19    18    20  ar
    20     1    21   1
    21     1    22   1
    22     1    23   1
    23     2    24   1
    24     6    25   1
    25     6    26   1
    26     7    27   1
    27     7    28   1
    28    10    29   1
    29    11    30   1
    30    14    31   1
    31    14    32   1
    32    15    33   1
    33    16    34   1
    34    17    35   1
    35    17    36   1
@<TRIPOS>SUBSTRUCTURE
     1  GSH      2

