@<TRIPOS>MOLECULE
1lbk_ligand_035
    36    35
SMALL
GAST_HUCK
****
This file was generated by PARSER (from files_GN.cpp)

@<TRIPOS>ATOM
      1 N1          5.3989   38.5620   -1.6225 N.4         1 GSH       0.2328
      2 CA1         4.5423   39.7234   -1.9085 C.3         1 GSH       0.0304
      3 C1          5.2349   40.6565   -2.8236 C.2         1 GSH       0.0846
      4 O11         6.3746   40.3246   -3.4771 O.co2       1 GSH      -0.5643
      5 O12         4.6897   41.8706   -3.0655 O.co2       1 GSH      -0.5643
      6 CB1         4.0980   40.3883   -0.5536 C.3         1 GSH       0.0193
      7 CG1         2.6035   40.2561   -0.1221 C.3         1 GSH       0.0441
      8 CD1         1.8846   39.1072   -0.6312 C.2         1 GSH       0.1785
      9 OE1         1.0313   39.2793   -1.4954 O.2         1 GSH      -0.3969
     10 N2          2.2102   37.8777   -0.2297 N.am        1 GSH      -0.2648
     11 CA2         1.7308   36.6193   -0.7375 C.3         1 GSH       0.1395
     12 C2          0.2726   36.5652   -0.7263 C.2         1 GSH       0.2039
     13 O2         -0.3145   36.0522    0.2216 O.2         1 GSH      -0.3944
     14 CB2         2.4158   35.4693    0.0653 C.3         1 GSH       0.0311
     15 SG2         1.9392   33.8236   -0.5019 S.3         1 GSH      -0.1735
     16 N3         -0.4069   37.1053   -1.7379 N.am        1 GSH      -0.2722
     17 CA3        -1.8151   37.3100   -1.8090 C.3         1 GSH       0.0833
     18 C3         -2.2275   38.4732   -0.9961 C.2         1 GSH       0.0570
     19 O31        -1.7120   39.7008   -1.2478 O.co2       1 GSH      -0.5669
     20 O32        -3.1332   38.3425   -0.0047 O.co2       1 GSH      -0.5669
     21 H1          4.9085   37.9290   -0.9869 H           1 GSH       0.2010
     22 H2          6.2489   38.9082   -1.1662 H           1 GSH       0.2010
     23 H3          5.6412   38.0692   -2.4906 H           1 GSH       0.2010
     24 H4          3.6851   39.3467   -2.4702 H           1 GSH       0.1026
     25 H5          4.3164   41.4607   -0.5829 H           1 GSH       0.0363
     26 H6          4.7147   39.9953    0.2616 H           1 GSH       0.0363
     27 H7          2.0822   41.1716   -0.4321 H           1 GSH       0.0505
     28 H8          2.5393   40.2495    0.9753 H           1 GSH       0.0505
     29 H9          2.9186   37.8215    0.4305 H           1 GSH       0.1883
     30 H10         2.0895   36.5406   -1.7753 H           1 GSH       0.0808
     31 H11         2.1834   35.5715    1.1239 H           1 GSH       0.0422
     32 H12         3.4996   35.5474   -0.0502 H           1 GSH       0.0422
     33 H13         2.3745   33.2267    0.6561 H           1 GSH       0.1019
     34 H14         0.1259   37.4537   -2.4760 H           1 GSH       0.1873
     35 H15        -2.3506   36.4142   -1.4854 H           1 GSH       0.0689
     36 H16        -2.0849   37.4989   -2.8491 H           1 GSH       0.0689
@<TRIPOS>BOND
     1     1     2   1
     2     2     3   1
     3     2     6   1
     4     3     4  ar
     5     3     5  ar
     6     6     7   1
     7     7     8   1
     8     8     9   2
     9     8    10  am
    10    10    11   1
    11    11    12   1
    12    11    14   1
    13    12    13   2
    14    12    16  am
    15    14    15   1
    16    16    17   1
    17    17    18   1
    18    18    19  ar
    19    18    20  ar
    20     1    21   1
    21     1    22   1
    22     1    23   1
    23     2    24   1
    24     6    25   1
    25     6    26   1
    26     7    27   1
    27     7    28   1
    28    10    29   1
    29    11    30   1
    30    14    31   1
    31    14    32   1
    32    15    33   1
    33    16    34   1
    34    17    35   1
    35    17    36   1
@<TRIPOS>SUBSTRUCTURE
     1  GSH      2

