@<TRIPOS>MOLECULE
1lbk_ligand_057
    36    35
SMALL
GAST_HUCK
****
This file was generated by PARSER (from files_GN.cpp)

@<TRIPOS>ATOM
      1 N1         -1.6585   41.2416   -1.0758 N.4         1 GSH       0.2328
      2 CA1        -0.3683   41.4646   -0.3948 C.3         1 GSH       0.0304
      3 C1         -0.0571   42.9120   -0.4338 C.2         1 GSH       0.0846
      4 O11         0.2036   43.5440   -1.6079 O.co2       1 GSH      -0.5643
      5 O12        -0.0491   43.6477    0.7112 O.co2       1 GSH      -0.5643
      6 CB1         0.7278   40.5716   -1.0599 C.3         1 GSH       0.0193
      7 CG1         2.0265   40.3824   -0.2113 C.3         1 GSH       0.0441
      8 CD1         3.1633   40.1731   -1.0902 C.2         1 GSH       0.1785
      9 OE1         3.6330   41.1748   -1.6547 O.2         1 GSH      -0.3969
     10 N2          3.5101   38.9138   -1.4079 N.am        1 GSH      -0.2648
     11 CA2         4.3167   38.4296   -2.4944 C.3         1 GSH       0.1395
     12 C2          5.4243   37.5750   -2.0762 C.2         1 GSH       0.2039
     13 O2          6.5837   37.8612   -2.3554 O.2         1 GSH      -0.3944
     14 CB2         4.6345   39.4888   -3.6077 C.3         1 GSH       0.0311
     15 SG2         5.5069   41.0330   -3.2173 S.3         1 GSH      -0.1735
     16 N3          5.1441   36.3475   -1.6653 N.am        1 GSH      -0.2722
     17 CA3         6.0566   35.2527   -1.5328 C.3         1 GSH       0.0833
     18 C3          7.0132   35.3756   -0.4210 C.2         1 GSH       0.0570
     19 O31         6.9876   34.5141    0.6191 O.co2       1 GSH      -0.5669
     20 O32         8.0249   36.2825   -0.4804 O.co2       1 GSH      -0.5669
     21 H1         -1.9175   40.2473   -0.9943 H           1 GSH       0.2010
     22 H2         -1.5740   41.4996   -2.0704 H           1 GSH       0.2010
     23 H3         -2.3856   41.8212   -0.6322 H           1 GSH       0.2010
     24 H4         -0.4905   41.1456    0.6459 H           1 GSH       0.1026
     25 H5          0.9767   41.0079   -2.0425 H           1 GSH       0.0363
     26 H6          0.3059   39.5663   -1.2420 H           1 GSH       0.0363
     27 H7          1.9252   39.5146    0.4585 H           1 GSH       0.0505
     28 H8          2.2205   41.2753    0.4025 H           1 GSH       0.0505
     29 H9          3.0684   38.2071   -0.8854 H           1 GSH       0.1883
     30 H10         3.6378   37.7281   -3.0073 H           1 GSH       0.0808
     31 H11         3.6857   39.7750   -4.0679 H           1 GSH       0.0422
     32 H12         5.2388   38.9990   -4.3754 H           1 GSH       0.0422
     33 H13         6.3495   40.5165   -2.2535 H           1 GSH       0.1019
     34 H14         4.2133   36.1451   -1.4951 H           1 GSH       0.1873
     35 H15         6.5883   35.1165   -2.4733 H           1 GSH       0.0689
     36 H16         5.4549   34.3461   -1.3709 H           1 GSH       0.0689
@<TRIPOS>BOND
     1     1     2   1
     2     2     3   1
     3     2     6   1
     4     3     4  ar
     5     3     5  ar
     6     6     7   1
     7     7     8   1
     8     8     9   2
     9     8    10  am
    10    10    11   1
    11    11    12   1
    12    11    14   1
    13    12    13   2
    14    12    16  am
    15    14    15   1
    16    16    17   1
    17    17    18   1
    18    18    19  ar
    19    18    20  ar
    20     1    21   1
    21     1    22   1
    22     1    23   1
    23     2    24   1
    24     6    25   1
    25     6    26   1
    26     7    27   1
    27     7    28   1
    28    10    29   1
    29    11    30   1
    30    14    31   1
    31    14    32   1
    32    15    33   1
    33    16    34   1
    34    17    35   1
    35    17    36   1
@<TRIPOS>SUBSTRUCTURE
     1  GSH      2

