@<TRIPOS>MOLECULE
1lbk_ligand_020
    36    35
SMALL
GAST_HUCK
****
This file was generated by PARSER (from files_GN.cpp)

@<TRIPOS>ATOM
      1 N1         -1.9534   37.0809   -2.2093 N.4         1 GSH       0.2328
      2 CA1        -1.7068   37.6046   -0.8558 C.3         1 GSH       0.0304
      3 C1         -1.8438   39.0764   -0.7825 C.2         1 GSH       0.0846
      4 O11        -2.1205   39.6716    0.4014 O.co2       1 GSH      -0.5643
      5 O12        -1.9020   39.8478   -1.8949 O.co2       1 GSH      -0.5643
      6 CB1        -0.3672   37.0589   -0.2821 C.3         1 GSH       0.0193
      7 CG1         0.9605   37.3001   -1.0557 C.3         1 GSH       0.0441
      8 CD1         1.4676   38.6591   -1.0389 C.2         1 GSH       0.1785
      9 OE1         0.7701   39.5418   -1.5278 O.2         1 GSH      -0.3969
     10 N2          2.6791   38.9454   -0.5707 N.am        1 GSH      -0.2648
     11 CA2         3.3747   40.2111   -0.6403 C.3         1 GSH       0.1395
     12 C2          2.4451   41.3316   -0.4856 C.2         1 GSH       0.2039
     13 O2          2.2213   42.0825   -1.4286 O.2         1 GSH      -0.3944
     14 CB2         4.2709   40.1952   -1.9190 C.3         1 GSH       0.0311
     15 SG2         4.9018   41.8108   -2.4143 S.3         1 GSH      -0.1735
     16 N3          1.7574   41.4277    0.6450 N.am        1 GSH      -0.2722
     17 CA3         0.6080   42.2420    0.8957 C.3         1 GSH       0.0833
     18 C3          0.8062   43.0430    2.1034 C.2         1 GSH       0.0570
     19 O31         1.0776   42.4409    3.2806 O.co2       1 GSH      -0.5669
     20 O32         0.9736   44.3769    2.0025 O.co2       1 GSH      -0.5669
     21 H1         -1.9497   36.0576   -2.1858 H           1 GSH       0.2010
     22 H2         -1.2333   37.4092   -2.8514 H           1 GSH       0.2010
     23 H3         -2.8736   37.3992   -2.5350 H           1 GSH       0.2010
     24 H4         -2.5112   37.1999   -0.2356 H           1 GSH       0.1026
     25 H5         -0.4828   35.9727   -0.2211 H           1 GSH       0.0363
     26 H6         -0.2332   37.4110    0.7418 H           1 GSH       0.0363
     27 H7          0.8360   36.9887   -2.0957 H           1 GSH       0.0505
     28 H8          1.7172   36.6295   -0.6260 H           1 GSH       0.0505
     29 H9          3.1823   38.2074   -0.1878 H           1 GSH       0.1883
     30 H10         4.0551   40.2387    0.2185 H           1 GSH       0.0808
     31 H11         3.7061   39.7916   -2.7617 H           1 GSH       0.0422
     32 H12         5.1286   39.5307   -1.7535 H           1 GSH       0.0422
     33 H13         6.0719   41.7045   -1.7123 H           1 GSH       0.1019
     34 H14         2.0088   40.8175    1.3587 H           1 GSH       0.1873
     35 H15        -0.2424   41.5792    1.0536 H           1 GSH       0.0689
     36 H16         0.3593   42.8949    0.0512 H           1 GSH       0.0689
@<TRIPOS>BOND
     1     1     2   1
     2     2     3   1
     3     2     6   1
     4     3     4  ar
     5     3     5  ar
     6     6     7   1
     7     7     8   1
     8     8     9   2
     9     8    10  am
    10    10    11   1
    11    11    12   1
    12    11    14   1
    13    12    13   2
    14    12    16  am
    15    14    15   1
    16    16    17   1
    17    17    18   1
    18    18    19  ar
    19    18    20  ar
    20     1    21   1
    21     1    22   1
    22     1    23   1
    23     2    24   1
    24     6    25   1
    25     6    26   1
    26     7    27   1
    27     7    28   1
    28    10    29   1
    29    11    30   1
    30    14    31   1
    31    14    32   1
    32    15    33   1
    33    16    34   1
    34    17    35   1
    35    17    36   1
@<TRIPOS>SUBSTRUCTURE
     1  GSH      2

