@<TRIPOS>MOLECULE
1lbk_ligand_016
    36    35
SMALL
GAST_HUCK
****
This file was generated by PARSER (from files_GN.cpp)

@<TRIPOS>ATOM
      1 N1          5.7860   38.8330   -1.5396 N.4         1 GSH       0.2328
      2 CA1         7.0817   38.6288   -2.2109 C.3         1 GSH       0.0304
      3 C1          7.2774   39.6332   -3.2674 C.2         1 GSH       0.0846
      4 O11         6.4204   40.6655   -3.4329 O.co2       1 GSH      -0.5643
      5 O12         8.4850   39.7408   -3.8665 O.co2       1 GSH      -0.5643
      6 CB1         7.1865   37.1689   -2.7275 C.3         1 GSH       0.0193
      7 CG1         7.3460   36.1569   -1.5435 C.3         1 GSH       0.0441
      8 CD1         7.6581   34.7942   -1.8986 C.2         1 GSH       0.1785
      9 OE1         8.4282   34.5941   -2.8558 O.2         1 GSH      -0.3969
     10 N2          7.1629   33.7605   -1.2118 N.am        1 GSH      -0.2648
     11 CA2         7.5228   32.3715   -1.3446 C.3         1 GSH       0.1395
     12 C2          7.6446   31.9882   -2.7465 C.2         1 GSH       0.2039
     13 O2          8.7585   31.6753   -3.1657 O.2         1 GSH      -0.3944
     14 CB2         6.4961   31.4957   -0.5625 C.3         1 GSH       0.0311
     15 SG2         7.0889   29.8427   -0.1407 S.3         1 GSH      -0.1735
     16 N3          6.6020   32.1024   -3.5428 N.am        1 GSH      -0.2722
     17 CA3         6.5930   32.0397   -4.9764 C.3         1 GSH       0.0833
     18 C3          6.2786   33.3882   -5.4776 C.2         1 GSH       0.0570
     19 O31         5.1104   33.9914   -5.1631 O.co2       1 GSH      -0.5669
     20 O32         7.1832   34.0987   -6.1857 O.co2       1 GSH      -0.5669
     21 H1          5.6921   38.2074   -0.7475 H           1 GSH       0.2010
     22 H2          5.0211   38.6790   -2.1973 H           1 GSH       0.2010
     23 H3          5.7520   39.7896   -1.1913 H           1 GSH       0.2010
     24 H4          7.8607   38.8014   -1.4670 H           1 GSH       0.1026
     25 H5          8.0573   37.0701   -3.3804 H           1 GSH       0.0363
     26 H6          6.3042   36.9078   -3.3080 H           1 GSH       0.0363
     27 H7          6.4266   36.1700   -0.9504 H           1 GSH       0.0505
     28 H8          8.1574   36.5069   -0.8909 H           1 GSH       0.0505
     29 H9          6.5279   33.9865   -0.5000 H           1 GSH       0.1883
     30 H10         8.4835   32.2608   -0.8322 H           1 GSH       0.0808
     31 H11         5.5619   31.4064   -1.1218 H           1 GSH       0.0422
     32 H12         6.2661   31.9904    0.3809 H           1 GSH       0.0422
     33 H13         7.1090   29.3897   -1.4230 H           1 GSH       0.1019
     34 H14         5.7614   32.3455   -3.1337 H           1 GSH       0.1873
     35 H15         5.8156   31.3479   -5.2973 H           1 GSH       0.0689
     36 H16         7.5454   31.6989   -5.3914 H           1 GSH       0.0689
@<TRIPOS>BOND
     1     1     2   1
     2     2     3   1
     3     2     6   1
     4     3     4  ar
     5     3     5  ar
     6     6     7   1
     7     7     8   1
     8     8     9   2
     9     8    10  am
    10    10    11   1
    11    11    12   1
    12    11    14   1
    13    12    13   2
    14    12    16  am
    15    14    15   1
    16    16    17   1
    17    17    18   1
    18    18    19  ar
    19    18    20  ar
    20     1    21   1
    21     1    22   1
    22     1    23   1
    23     2    24   1
    24     6    25   1
    25     6    26   1
    26     7    27   1
    27     7    28   1
    28    10    29   1
    29    11    30   1
    30    14    31   1
    31    14    32   1
    32    15    33   1
    33    16    34   1
    34    17    35   1
    35    17    36   1
@<TRIPOS>SUBSTRUCTURE
     1  GSH      2

