@<TRIPOS>MOLECULE
1lbk_ligand_044
    36    35
SMALL
GAST_HUCK
****
This file was generated by PARSER (from files_GN.cpp)

@<TRIPOS>ATOM
      1 N1          6.7299   38.7464   -1.5380 N.4         1 GSH       0.2328
      2 CA1         6.9859   37.8131   -2.6435 C.3         1 GSH       0.0304
      3 C1          7.9122   38.4729   -3.5904 C.2         1 GSH       0.0846
      4 O11         9.0940   37.8985   -3.9152 O.co2       1 GSH      -0.5643
      5 O12         7.6187   39.6900   -4.1079 O.co2       1 GSH      -0.5643
      6 CB1         5.6982   37.3147   -3.3672 C.3         1 GSH       0.0193
      7 CG1         4.3913   37.2189   -2.5221 C.3         1 GSH       0.0441
      8 CD1         3.7258   38.4985   -2.2940 C.2         1 GSH       0.1785
      9 OE1         3.6403   39.2760   -3.2357 O.2         1 GSH      -0.3969
     10 N2          3.1793   38.7706   -1.1159 N.am        1 GSH      -0.2648
     11 CA2         2.5952   39.9928   -0.6206 C.3         1 GSH       0.1395
     12 C2          1.4417   40.5527   -1.3324 C.2         1 GSH       0.2039
     13 O2          1.3800   40.4753   -2.5542 O.2         1 GSH      -0.3944
     14 CB2         3.6872   41.0463   -0.2805 C.3         1 GSH       0.0311
     15 SG2         4.5268   41.8380   -1.6826 S.3         1 GSH      -0.1735
     16 N3          0.4920   41.2053   -0.6647 N.am        1 GSH      -0.2722
     17 CA3        -0.6877   41.8118   -1.2096 C.3         1 GSH       0.0833
     18 C3         -0.5196   43.2706   -1.3028 C.2         1 GSH       0.0570
     19 O31        -0.6494   43.9006   -2.4953 O.co2       1 GSH      -0.5669
     20 O32        -0.3718   44.0130   -0.1806 O.co2       1 GSH      -0.5669
     21 H1          6.2709   38.2552   -0.7682 H           1 GSH       0.2010
     22 H2          6.1426   39.5195   -1.8572 H           1 GSH       0.2010
     23 H3          7.6218   39.1176   -1.1993 H           1 GSH       0.2010
     24 H4          7.4899   36.9488   -2.2039 H           1 GSH       0.1026
     25 H5          5.9110   36.3206   -3.7705 H           1 GSH       0.0363
     26 H6          5.4907   37.9549   -4.2269 H           1 GSH       0.0363
     27 H7          4.6204   36.7124   -1.5794 H           1 GSH       0.0505
     28 H8          3.6832   36.5744   -3.0579 H           1 GSH       0.0505
     29 H9          3.2787   38.0759   -0.4503 H           1 GSH       0.1883
     30 H10         2.1991   39.6791    0.3497 H           1 GSH       0.0808
     31 H11         4.4584   40.5559    0.3145 H           1 GSH       0.0422
     32 H12         3.2422   41.8251    0.3428 H           1 GSH       0.0422
     33 H13         3.6533   42.8873   -1.7492 H           1 GSH       0.1019
     34 H14         0.6113   41.2857    0.2909 H           1 GSH       0.1873
     35 H15        -1.5324   41.6007   -0.5498 H           1 GSH       0.0689
     36 H16        -0.9363   41.4074   -2.2001 H           1 GSH       0.0689
@<TRIPOS>BOND
     1     1     2   1
     2     2     3   1
     3     2     6   1
     4     3     4  ar
     5     3     5  ar
     6     6     7   1
     7     7     8   1
     8     8     9   2
     9     8    10  am
    10    10    11   1
    11    11    12   1
    12    11    14   1
    13    12    13   2
    14    12    16  am
    15    14    15   1
    16    16    17   1
    17    17    18   1
    18    18    19  ar
    19    18    20  ar
    20     1    21   1
    21     1    22   1
    22     1    23   1
    23     2    24   1
    24     6    25   1
    25     6    26   1
    26     7    27   1
    27     7    28   1
    28    10    29   1
    29    11    30   1
    30    14    31   1
    31    14    32   1
    32    15    33   1
    33    16    34   1
    34    17    35   1
    35    17    36   1
@<TRIPOS>SUBSTRUCTURE
     1  GSH      2

