@<TRIPOS>MOLECULE
1lbk_ligand_061
    36    35
SMALL
GAST_HUCK
****
This file was generated by PARSER (from files_GN.cpp)

@<TRIPOS>ATOM
      1 N1          4.1233   32.0497   -4.2301 N.4         1 GSH       0.2328
      2 CA1         4.0530   32.5655   -2.8534 C.3         1 GSH       0.0304
      3 C1          2.8844   31.9566   -2.1806 C.2         1 GSH       0.0846
      4 O11         1.6381   32.1094   -2.6828 O.co2       1 GSH      -0.5643
      5 O12         3.0301   31.3140   -0.9997 O.co2       1 GSH      -0.5643
      6 CB1         4.0056   34.1172   -2.8508 C.3         1 GSH       0.0193
      7 CG1         3.8794   34.7491   -1.4319 C.3         1 GSH       0.0441
      8 CD1         3.8490   36.2021   -1.4806 C.2         1 GSH       0.1785
      9 OE1         4.8982   36.8016   -1.7352 O.2         1 GSH      -0.3969
     10 N2          2.6921   36.8337   -1.2613 N.am        1 GSH      -0.2648
     11 CA2         2.3531   38.2365   -1.2720 C.3         1 GSH       0.1395
     12 C2          3.4116   39.1685   -1.6584 C.2         1 GSH       0.2039
     13 O2          3.8841   39.9612   -0.8447 O.2         1 GSH      -0.3944
     14 CB2         1.6390   38.5727    0.0659 C.3         1 GSH       0.0311
     15 SG2         0.7456   40.1495    0.0159 S.3         1 GSH      -0.1735
     16 N3          3.8668   39.1219   -2.8993 N.am        1 GSH      -0.2722
     17 CA3         4.9236   39.8982   -3.4646 C.3         1 GSH       0.0833
     18 C3          6.1281   39.0784   -3.7008 C.2         1 GSH       0.0570
     19 O31         7.2852   39.6776   -4.0613 O.co2       1 GSH      -0.5669
     20 O32         6.1573   37.7523   -3.3854 O.co2       1 GSH      -0.5669
     21 H1          4.9569   32.4165   -4.6932 H           1 GSH       0.2010
     22 H2          3.2937   32.3346   -4.7549 H           1 GSH       0.2010
     23 H3          4.1748   31.0282   -4.2107 H           1 GSH       0.2010
     24 H4          4.9660   32.2454   -2.3426 H           1 GSH       0.1026
     25 H5          3.1671   34.4462   -3.4709 H           1 GSH       0.0363
     26 H6          4.9247   34.4871   -3.3195 H           1 GSH       0.0363
     27 H7          4.7233   34.4267   -0.8134 H           1 GSH       0.0505
     28 H8          2.9711   34.3764   -0.9492 H           1 GSH       0.0505
     29 H9          1.9406   36.2486   -1.0650 H           1 GSH       0.1883
     30 H10         1.5831   38.3232   -2.0402 H           1 GSH       0.0808
     31 H11         2.3727   38.6124    0.8778 H           1 GSH       0.0422
     32 H12         0.9161   37.7893    0.3095 H           1 GSH       0.0422
     33 H13        -0.0373   39.7761   -1.0336 H           1 GSH       0.1019
     34 H14         3.4539   38.4678   -3.4841 H           1 GSH       0.1873
     35 H15         5.2019   40.7465   -2.8281 H           1 GSH       0.0689
     36 H16         4.5679   40.2975   -4.4166 H           1 GSH       0.0689
@<TRIPOS>BOND
     1     1     2   1
     2     2     3   1
     3     2     6   1
     4     3     4  ar
     5     3     5  ar
     6     6     7   1
     7     7     8   1
     8     8     9   2
     9     8    10  am
    10    10    11   1
    11    11    12   1
    12    11    14   1
    13    12    13   2
    14    12    16  am
    15    14    15   1
    16    16    17   1
    17    17    18   1
    18    18    19  ar
    19    18    20  ar
    20     1    21   1
    21     1    22   1
    22     1    23   1
    23     2    24   1
    24     6    25   1
    25     6    26   1
    26     7    27   1
    27     7    28   1
    28    10    29   1
    29    11    30   1
    30    14    31   1
    31    14    32   1
    32    15    33   1
    33    16    34   1
    34    17    35   1
    35    17    36   1
@<TRIPOS>SUBSTRUCTURE
     1  GSH      2

