@<TRIPOS>MOLECULE
1lbk_ligand_046
    36    35
SMALL
GAST_HUCK
****
This file was generated by PARSER (from files_GN.cpp)

@<TRIPOS>ATOM
      1 N1          5.4794   38.6608   -1.4877 N.4         1 GSH       0.2328
      2 CA1         4.5987   39.4925   -2.3273 C.3         1 GSH       0.0304
      3 C1          5.4287   40.3631   -3.1869 C.2         1 GSH       0.0846
      4 O11         6.6406   39.9635   -3.6428 O.co2       1 GSH      -0.5643
      5 O12         4.9289   41.5094   -3.6877 O.co2       1 GSH      -0.5643
      6 CB1         3.5472   40.3094   -1.4871 C.3         1 GSH       0.0193
      7 CG1         3.2329   39.8773   -0.0281 C.3         1 GSH       0.0441
      8 CD1         2.5703   38.6103    0.2053 C.2         1 GSH       0.1785
      9 OE1         2.4086   38.2953    1.3787 O.2         1 GSH      -0.3969
     10 N2          2.1542   37.8086   -0.7631 N.am        1 GSH      -0.2648
     11 CA2         1.5524   36.5052   -0.6063 C.3         1 GSH       0.1395
     12 C2          2.3643   35.4700   -1.2521 C.2         1 GSH       0.2039
     13 O2          3.4376   35.7617   -1.7708 O.2         1 GSH      -0.3944
     14 CB2         0.1043   36.5674   -1.1763 C.3         1 GSH       0.0311
     15 SG2        -0.8910   37.9539   -0.5734 S.3         1 GSH      -0.1735
     16 N3          1.9523   34.2057   -1.2167 N.am        1 GSH      -0.2722
     17 CA3         2.5151   33.0235   -1.8068 C.3         1 GSH       0.0833
     18 C3          3.6066   33.1604   -2.7895 C.2         1 GSH       0.0570
     19 O31         3.5232   34.0659   -3.7881 O.co2       1 GSH      -0.5669
     20 O32         4.7201   32.3891   -2.7048 O.co2       1 GSH      -0.5669
     21 H1          4.9158   38.0020   -0.9525 H           1 GSH       0.2010
     22 H2          6.0138   39.2556   -0.8465 H           1 GSH       0.2010
     23 H3          6.1280   38.1366   -2.0831 H           1 GSH       0.2010
     24 H4          4.0630   38.8021   -2.9838 H           1 GSH       0.1026
     25 H5          2.6062   40.3315   -2.0482 H           1 GSH       0.0363
     26 H6          3.8885   41.3489   -1.4115 H           1 GSH       0.0363
     27 H7          2.6046   40.6510    0.4132 H           1 GSH       0.0505
     28 H8          4.1764   39.8822    0.5175 H           1 GSH       0.0505
     29 H9          2.2552   38.1050   -1.6802 H           1 GSH       0.1883
     30 H10         1.4789   36.2281    0.4474 H           1 GSH       0.0808
     31 H11        -0.4382   35.6472   -0.9304 H           1 GSH       0.0422
     32 H12         0.1460   36.6668   -2.2657 H           1 GSH       0.0422
     33 H13        -1.1693   37.3750    0.6226 H           1 GSH       0.1019
     34 H14         1.1375   34.0546   -0.7162 H           1 GSH       0.1873
     35 H15         1.6995   32.4949   -2.3076 H           1 GSH       0.0689
     36 H16         2.8528   32.3888   -0.9861 H           1 GSH       0.0689
@<TRIPOS>BOND
     1     1     2   1
     2     2     3   1
     3     2     6   1
     4     3     4  ar
     5     3     5  ar
     6     6     7   1
     7     7     8   1
     8     8     9   2
     9     8    10  am
    10    10    11   1
    11    11    12   1
    12    11    14   1
    13    12    13   2
    14    12    16  am
    15    14    15   1
    16    16    17   1
    17    17    18   1
    18    18    19  ar
    19    18    20  ar
    20     1    21   1
    21     1    22   1
    22     1    23   1
    23     2    24   1
    24     6    25   1
    25     6    26   1
    26     7    27   1
    27     7    28   1
    28    10    29   1
    29    11    30   1
    30    14    31   1
    31    14    32   1
    32    15    33   1
    33    16    34   1
    34    17    35   1
    35    17    36   1
@<TRIPOS>SUBSTRUCTURE
     1  GSH      2

