@<TRIPOS>MOLECULE
1lbk_ligand_025
    36    35
SMALL
GAST_HUCK
****
This file was generated by PARSER (from files_GN.cpp)

@<TRIPOS>ATOM
      1 N1          6.3426   38.4574   -1.7867 N.4         1 GSH       0.2328
      2 CA1         7.7546   38.2035   -2.1101 C.3         1 GSH       0.0304
      3 C1          8.2459   39.2920   -2.9946 C.2         1 GSH       0.0846
      4 O11         9.5847   39.5136   -3.1473 O.co2       1 GSH      -0.5643
      5 O12         7.4064   39.8601   -3.9001 O.co2       1 GSH      -0.5643
      6 CB1         8.0376   36.8165   -2.7739 C.3         1 GSH       0.0193
      7 CG1         7.2800   35.6038   -2.1591 C.3         1 GSH       0.0441
      8 CD1         5.8802   35.4773   -2.5488 C.2         1 GSH       0.1785
      9 OE1         5.6286   35.3683   -3.7456 O.2         1 GSH      -0.3969
     10 N2          4.9160   35.4051   -1.6325 N.am        1 GSH      -0.2648
     11 CA2         3.5075   35.2122   -1.8703 C.3         1 GSH       0.1395
     12 C2          2.7622   35.8326   -0.7893 C.2         1 GSH       0.2039
     13 O2          2.9363   35.4109    0.3477 O.2         1 GSH      -0.3944
     14 CB2         3.2353   33.6810   -2.0895 C.3         1 GSH       0.0311
     15 SG2         1.9029   32.9153   -1.1073 S.3         1 GSH      -0.1735
     16 N3          1.9151   36.8190   -1.0435 N.am        1 GSH      -0.2722
     17 CA3         1.0737   37.4983   -0.1095 C.3         1 GSH       0.0833
     18 C3         -0.3199   37.3966   -0.5729 C.2         1 GSH       0.0570
     19 O31        -1.1862   38.4372   -0.4067 O.co2       1 GSH      -0.5669
     20 O32        -0.8256   36.1966   -0.9512 O.co2       1 GSH      -0.5669
     21 H1          6.0812   37.9049   -0.9792 H           1 GSH       0.2010
     22 H2          5.7537   38.2394   -2.5849 H           1 GSH       0.2010
     23 H3          6.2433   39.4405   -1.5465 H           1 GSH       0.2010
     24 H4          8.3224   38.2665   -1.1656 H           1 GSH       0.1026
     25 H5          9.1088   36.6237   -2.6754 H           1 GSH       0.0363
     26 H6          7.8170   36.8784   -3.8366 H           1 GSH       0.0363
     27 H7          7.3827   35.6347   -1.0656 H           1 GSH       0.0505
     28 H8          7.7876   34.6950   -2.4995 H           1 GSH       0.0505
     29 H9          5.2022   35.4271   -0.7066 H           1 GSH       0.1883
     30 H10         3.2217   35.7109   -2.8157 H           1 GSH       0.0808
     31 H11         4.1507   33.1147   -1.8601 H           1 GSH       0.0422
     32 H12         2.9932   33.5248   -3.1585 H           1 GSH       0.0422
     33 H13         0.9383   33.8422   -1.4396 H           1 GSH       0.1019
     34 H14         1.8701   37.1346   -1.9578 H           1 GSH       0.1873
     35 H15         1.3642   38.5508   -0.0575 H           1 GSH       0.0689
     36 H16         1.1287   37.0791    0.8954 H           1 GSH       0.0689
@<TRIPOS>BOND
     1     1     2   1
     2     2     3   1
     3     2     6   1
     4     3     4  ar
     5     3     5  ar
     6     6     7   1
     7     7     8   1
     8     8     9   2
     9     8    10  am
    10    10    11   1
    11    11    12   1
    12    11    14   1
    13    12    13   2
    14    12    16  am
    15    14    15   1
    16    16    17   1
    17    17    18   1
    18    18    19  ar
    19    18    20  ar
    20     1    21   1
    21     1    22   1
    22     1    23   1
    23     2    24   1
    24     6    25   1
    25     6    26   1
    26     7    27   1
    27     7    28   1
    28    10    29   1
    29    11    30   1
    30    14    31   1
    31    14    32   1
    32    15    33   1
    33    16    34   1
    34    17    35   1
    35    17    36   1
@<TRIPOS>SUBSTRUCTURE
     1  GSH      2

