@<TRIPOS>MOLECULE
1lbk_ligand_031
    36    35
SMALL
GAST_HUCK
****
This file was generated by PARSER (from files_GN.cpp)

@<TRIPOS>ATOM
      1 N1          3.3293   39.8701    0.0897 N.4         1 GSH       0.2328
      2 CA1         4.1271   40.2242   -1.0989 C.3         1 GSH       0.0304
      3 C1          3.9445   41.6490   -1.4477 C.2         1 GSH       0.0846
      4 O11         4.6967   42.1918   -2.4359 O.co2       1 GSH      -0.5643
      5 O12         2.8625   42.3439   -1.0264 O.co2       1 GSH      -0.5643
      6 CB1         3.7834   39.2822   -2.2974 C.3         1 GSH       0.0193
      7 CG1         4.6882   38.0258   -2.4096 C.3         1 GSH       0.0441
      8 CD1         6.0507   38.2955   -2.8495 C.2         1 GSH       0.1785
      9 OE1         6.2078   38.8602   -3.9280 O.2         1 GSH      -0.3969
     10 N2          7.0835   37.8491   -2.1384 N.am        1 GSH      -0.2648
     11 CA2         8.4870   37.8588   -2.4642 C.3         1 GSH       0.1395
     12 C2          9.1386   39.0756   -1.9909 C.2         1 GSH       0.2039
     13 O2          8.8762   40.1327   -2.5483 O.2         1 GSH      -0.3944
     14 CB2         8.8351   37.5696   -3.9580 C.3         1 GSH       0.0311
     15 SG2         8.4067   35.8820   -4.4552 S.3         1 GSH      -0.1735
     16 N3         10.0304   39.0095   -1.0063 N.am        1 GSH      -0.2722
     17 CA3        10.7702   40.0870   -0.4244 C.3         1 GSH       0.0833
     18 C3         12.2165   39.8951   -0.6217 C.2         1 GSH       0.0570
     19 O31        12.6964   39.5711   -1.8446 O.co2       1 GSH      -0.5669
     20 O32        13.0950   40.0740    0.3909 O.co2       1 GSH      -0.5669
     21 H1          3.4095   38.8723    0.2642 H           1 GSH       0.2010
     22 H2          2.3488   40.1006   -0.0635 H           1 GSH       0.2010
     23 H3          3.6693   40.3684    0.9142 H           1 GSH       0.2010
     24 H4          5.1726   40.1026   -0.8109 H           1 GSH       0.1026
     25 H5          3.8372   39.8202   -3.2496 H           1 GSH       0.0363
     26 H6          2.7486   38.9524   -2.1912 H           1 GSH       0.0363
     27 H7          4.2359   37.3505   -3.1439 H           1 GSH       0.0505
     28 H8          4.6893   37.4963   -1.4475 H           1 GSH       0.0505
     29 H9          6.8639   37.4495   -1.2788 H           1 GSH       0.1883
     30 H10         8.9014   37.0115   -1.9022 H           1 GSH       0.0808
     31 H11         9.9123   37.6997   -4.1150 H           1 GSH       0.0422
     32 H12         8.3183   38.2674   -4.6211 H           1 GSH       0.0422
     33 H13         8.7753   36.1017   -5.7495 H           1 GSH       0.1019
     34 H14        10.2050   38.1290   -0.6307 H           1 GSH       0.1873
     35 H15        10.5466   40.0994    0.6406 H           1 GSH       0.0689
     36 H16        10.4895   41.0547   -0.8337 H           1 GSH       0.0689
@<TRIPOS>BOND
     1     1     2   1
     2     2     3   1
     3     2     6   1
     4     3     4  ar
     5     3     5  ar
     6     6     7   1
     7     7     8   1
     8     8     9   2
     9     8    10  am
    10    10    11   1
    11    11    12   1
    12    11    14   1
    13    12    13   2
    14    12    16  am
    15    14    15   1
    16    16    17   1
    17    17    18   1
    18    18    19  ar
    19    18    20  ar
    20     1    21   1
    21     1    22   1
    22     1    23   1
    23     2    24   1
    24     6    25   1
    25     6    26   1
    26     7    27   1
    27     7    28   1
    28    10    29   1
    29    11    30   1
    30    14    31   1
    31    14    32   1
    32    15    33   1
    33    16    34   1
    34    17    35   1
    35    17    36   1
@<TRIPOS>SUBSTRUCTURE
     1  GSH      2

