@<TRIPOS>MOLECULE
1lbk_ligand_007
    36    35
SMALL
GAST_HUCK
****
This file was generated by PARSER (from files_GN.cpp)

@<TRIPOS>ATOM
      1 N1         -1.7396   42.8022    0.0472 N.4         1 GSH       0.2328
      2 CA1        -0.7263   43.5716   -0.6898 C.3         1 GSH       0.0304
      3 C1         -0.7662   43.2476   -2.1353 C.2         1 GSH       0.0846
      4 O11        -0.9471   41.9805   -2.5811 O.co2       1 GSH      -0.5643
      5 O12        -0.9968   44.2388   -3.0357 O.co2       1 GSH      -0.5643
      6 CB1         0.6946   43.4583   -0.0442 C.3         1 GSH       0.0193
      7 CG1         1.0358   42.2142    0.8419 C.3         1 GSH       0.0441
      8 CD1         1.4061   41.0281    0.0990 C.2         1 GSH       0.1785
      9 OE1         0.6673   40.6598   -0.8046 O.2         1 GSH      -0.3969
     10 N2          2.4763   40.3255    0.4466 N.am        1 GSH      -0.2648
     11 CA2         3.0003   39.1372   -0.1749 C.3         1 GSH       0.1395
     12 C2          3.7057   39.4429   -1.4157 C.2         1 GSH       0.2039
     13 O2          3.2396   40.2702   -2.2000 O.2         1 GSH      -0.3944
     14 CB2         1.9769   37.9607   -0.3174 C.3         1 GSH       0.0311
     15 SG2         2.6359   36.4438   -1.0639 S.3         1 GSH      -0.1735
     16 N3          4.8170   38.7661   -1.7114 N.am        1 GSH      -0.2722
     17 CA3         5.5386   38.7916   -2.9402 C.3         1 GSH       0.0833
     18 C3          6.2753   40.0521   -3.1243 C.2         1 GSH       0.0570
     19 O31         5.6261   41.2215   -3.3280 O.co2       1 GSH      -0.5669
     20 O32         7.6302   40.0351   -3.2169 O.co2       1 GSH      -0.5669
     21 H1         -1.7251   43.0888    1.0251 H           1 GSH       0.2010
     22 H2         -1.5335   41.8025   -0.0150 H           1 GSH       0.2010
     23 H3         -2.6667   42.9781   -0.3414 H           1 GSH       0.2010
     24 H4         -1.0406   44.6125   -0.5983 H           1 GSH       0.1026
     25 H5          0.8098   44.3253    0.6118 H           1 GSH       0.0363
     26 H6          1.4601   43.5654   -0.8228 H           1 GSH       0.0363
     27 H7          0.1909   41.9792    1.4973 H           1 GSH       0.0505
     28 H8          1.8627   42.4989    1.5106 H           1 GSH       0.0505
     29 H9          2.9833   40.6352    1.2201 H           1 GSH       0.1883
     30 H10         3.7414   38.7877    0.5514 H           1 GSH       0.0808
     31 H11         1.1070   38.2638   -0.9090 H           1 GSH       0.0422
     32 H12         1.6290   37.6927    0.6809 H           1 GSH       0.0422
     33 H13         2.3701   36.8604   -2.3418 H           1 GSH       0.1019
     34 H14         5.0978   38.1085   -1.0542 H           1 GSH       0.1873
     35 H15         4.8617   38.6350   -3.7820 H           1 GSH       0.0689
     36 H16         6.2423   37.9612   -2.9171 H           1 GSH       0.0689
@<TRIPOS>BOND
     1     1     2   1
     2     2     3   1
     3     2     6   1
     4     3     4  ar
     5     3     5  ar
     6     6     7   1
     7     7     8   1
     8     8     9   2
     9     8    10  am
    10    10    11   1
    11    11    12   1
    12    11    14   1
    13    12    13   2
    14    12    16  am
    15    14    15   1
    16    16    17   1
    17    17    18   1
    18    18    19  ar
    19    18    20  ar
    20     1    21   1
    21     1    22   1
    22     1    23   1
    23     2    24   1
    24     6    25   1
    25     6    26   1
    26     7    27   1
    27     7    28   1
    28    10    29   1
    29    11    30   1
    30    14    31   1
    31    14    32   1
    32    15    33   1
    33    16    34   1
    34    17    35   1
    35    17    36   1
@<TRIPOS>SUBSTRUCTURE
     1  GSH      2

