@<TRIPOS>MOLECULE
1lbk_ligand_030
    36    35
SMALL
GAST_HUCK
****
This file was generated by PARSER (from files_GN.cpp)

@<TRIPOS>ATOM
      1 N1          7.9363   36.8391   -1.7826 N.4         1 GSH       0.2328
      2 CA1         8.3464   37.7968   -2.8260 C.3         1 GSH       0.0304
      3 C1          7.2168   38.6814   -3.1795 C.2         1 GSH       0.0846
      4 O11         7.4520   39.8787   -3.7550 O.co2       1 GSH      -0.5643
      5 O12         5.9541   38.1926   -3.2372 O.co2       1 GSH      -0.5643
      6 CB1         8.8955   37.0656   -4.0888 C.3         1 GSH       0.0193
      7 CG1         9.7815   35.8230   -3.7816 C.3         1 GSH       0.0441
      8 CD1        10.0168   35.0105   -4.9576 C.2         1 GSH       0.1785
      9 OE1         9.5259   33.8837   -5.0062 O.2         1 GSH      -0.3969
     10 N2         10.6803   35.5177   -5.9896 N.am        1 GSH      -0.2648
     11 CA2        10.9434   34.9083   -7.2674 C.3         1 GSH       0.1395
     12 C2          9.7791   34.2348   -7.8469 C.2         1 GSH       0.2039
     13 O2          9.8663   33.1072   -8.3037 O.2         1 GSH      -0.3944
     14 CB2        12.3015   34.1319   -7.2494 C.3         1 GSH       0.0311
     15 SG2        12.3904   32.6545   -6.2041 S.3         1 GSH      -0.1735
     16 N3          8.6109   34.8745   -7.8873 N.am        1 GSH      -0.2722
     17 CA3         7.3712   34.3624   -8.3729 C.3         1 GSH       0.0833
     18 C3          7.2811   34.4519   -9.8384 C.2         1 GSH       0.0570
     19 O31         7.3712   35.6512  -10.4552 O.co2       1 GSH      -0.5669
     20 O32         7.0342   33.3612  -10.5932 O.co2       1 GSH      -0.5669
     21 H1          8.7649   36.3526   -1.4217 H           1 GSH       0.2010
     22 H2          7.2945   36.1528   -2.1798 H           1 GSH       0.2010
     23 H3          7.4783   37.3303   -1.0122 H           1 GSH       0.2010
     24 H4          9.1421   38.4141   -2.4006 H           1 GSH       0.1026
     25 H5          9.4841   37.7780   -4.6750 H           1 GSH       0.0363
     26 H6          8.0464   36.7451   -4.7063 H           1 GSH       0.0363
     27 H7          9.2942   35.2116   -3.0252 H           1 GSH       0.0505
     28 H8         10.7386   36.1456   -3.3723 H           1 GSH       0.0505
     29 H9         11.0134   36.4192   -5.8760 H           1 GSH       0.1883
     30 H10        11.1188   35.7551   -7.9408 H           1 GSH       0.0808
     31 H11        13.0690   34.8133   -6.8853 H           1 GSH       0.0422
     32 H12        12.5792   33.8437   -8.2659 H           1 GSH       0.0422
     33 H13        11.6117   31.8931   -7.0172 H           1 GSH       0.1019
     34 H14         8.5857   35.7604   -7.5024 H           1 GSH       0.1873
     35 H15         6.5601   34.9557   -7.9504 H           1 GSH       0.0689
     36 H16         7.2331   33.3297   -8.0454 H           1 GSH       0.0689
@<TRIPOS>BOND
     1     1     2   1
     2     2     3   1
     3     2     6   1
     4     3     4  ar
     5     3     5  ar
     6     6     7   1
     7     7     8   1
     8     8     9   2
     9     8    10  am
    10    10    11   1
    11    11    12   1
    12    11    14   1
    13    12    13   2
    14    12    16  am
    15    14    15   1
    16    16    17   1
    17    17    18   1
    18    18    19  ar
    19    18    20  ar
    20     1    21   1
    21     1    22   1
    22     1    23   1
    23     2    24   1
    24     6    25   1
    25     6    26   1
    26     7    27   1
    27     7    28   1
    28    10    29   1
    29    11    30   1
    30    14    31   1
    31    14    32   1
    32    15    33   1
    33    16    34   1
    34    17    35   1
    35    17    36   1
@<TRIPOS>SUBSTRUCTURE
     1  GSH      2

