@<TRIPOS>MOLECULE
1lbk_ligand_059
    36    35
SMALL
GAST_HUCK
****
This file was generated by PARSER (from files_GN.cpp)

@<TRIPOS>ATOM
      1 N1          4.3784   38.2946   -2.0636 N.4         1 GSH       0.2328
      2 CA1         5.7713   37.8182   -2.1324 C.3         1 GSH       0.0304
      3 C1          6.3282   38.1707   -3.4532 C.2         1 GSH       0.0846
      4 O11         7.0855   37.3103   -4.1737 O.co2       1 GSH      -0.5643
      5 O12         6.0909   39.3873   -3.9932 O.co2       1 GSH      -0.5643
      6 CB1         5.8294   36.2935   -1.7893 C.3         1 GSH       0.0193
      7 CG1         7.1769   35.6830   -1.2791 C.3         1 GSH       0.0441
      8 CD1         8.3675   36.5116   -1.2847 C.2         1 GSH       0.1785
      9 OE1         9.1072   36.5042   -2.2780 O.2         1 GSH      -0.3969
     10 N2          8.6827   37.2130   -0.2018 N.am        1 GSH      -0.2648
     11 CA2         9.8501   37.9817    0.1351 C.3         1 GSH       0.1395
     12 C2         10.1944   38.9685   -0.8806 C.2         1 GSH       0.2039
     13 O2         10.3445   40.1386   -0.5425 O.2         1 GSH      -0.3944
     14 CB2        11.0659   37.1115    0.5653 C.3         1 GSH       0.0311
     15 SG2        10.5866   35.7658    1.6815 S.3         1 GSH      -0.1735
     16 N3         10.3498   38.6032   -2.1456 N.am        1 GSH      -0.2722
     17 CA3        10.5574   39.4556   -3.2729 C.3         1 GSH       0.0833
     18 C3          9.6494   39.0313   -4.3434 C.2         1 GSH       0.0570
     19 O31         8.8841   39.9313   -4.9948 O.co2       1 GSH      -0.5669
     20 O32         9.6832   37.7571   -4.7943 O.co2       1 GSH      -0.5669
     21 H1          4.0339   38.1324   -1.1180 H           1 GSH       0.2010
     22 H2          3.7809   37.8047   -2.7340 H           1 GSH       0.2010
     23 H3          4.3508   39.2976   -2.2569 H           1 GSH       0.2010
     24 H4          6.3201   38.3767   -1.3720 H           1 GSH       0.1026
     25 H5          5.4870   35.7301   -2.6622 H           1 GSH       0.0363
     26 H6          5.0868   36.0925   -1.0111 H           1 GSH       0.0363
     27 H7          7.3831   34.7769   -1.8556 H           1 GSH       0.0505
     28 H8          7.0270   35.3365   -0.2499 H           1 GSH       0.0505
     29 H9          8.0438   37.1332    0.5213 H           1 GSH       0.1883
     30 H10         9.5740   38.5156    1.0495 H           1 GSH       0.0808
     31 H11        11.8003   37.7378    1.0777 H           1 GSH       0.0422
     32 H12        11.5577   36.6870   -0.3070 H           1 GSH       0.0422
     33 H13        11.7726   35.7979    2.3475 H           1 GSH       0.1019
     34 H14        10.2169   37.6512   -2.3418 H           1 GSH       0.1873
     35 H15        11.5823   39.3471   -3.6190 H           1 GSH       0.0689
     36 H16        10.3856   40.5074   -3.0408 H           1 GSH       0.0689
@<TRIPOS>BOND
     1     1     2   1
     2     2     3   1
     3     2     6   1
     4     3     4  ar
     5     3     5  ar
     6     6     7   1
     7     7     8   1
     8     8     9   2
     9     8    10  am
    10    10    11   1
    11    11    12   1
    12    11    14   1
    13    12    13   2
    14    12    16  am
    15    14    15   1
    16    16    17   1
    17    17    18   1
    18    18    19  ar
    19    18    20  ar
    20     1    21   1
    21     1    22   1
    22     1    23   1
    23     2    24   1
    24     6    25   1
    25     6    26   1
    26     7    27   1
    27     7    28   1
    28    10    29   1
    29    11    30   1
    30    14    31   1
    31    14    32   1
    32    15    33   1
    33    16    34   1
    34    17    35   1
    35    17    36   1
@<TRIPOS>SUBSTRUCTURE
     1  GSH      2

