@<TRIPOS>MOLECULE
1lbk_ligand_041
    36    35
SMALL
GAST_HUCK
****
This file was generated by PARSER (from files_GN.cpp)

@<TRIPOS>ATOM
      1 N1          2.4009   32.5512   -0.4322 N.4         1 GSH       0.2328
      2 CA1         3.5495   33.4616   -0.5936 C.3         1 GSH       0.0304
      3 C1          4.3912   33.4189    0.6250 C.2         1 GSH       0.0846
      4 O11         4.6284   32.2419    1.2344 O.co2       1 GSH      -0.5643
      5 O12         5.1552   34.4761    1.0038 O.co2       1 GSH      -0.5643
      6 CB1         3.0871   34.8849   -1.0334 C.3         1 GSH       0.0193
      7 CG1         1.8910   35.4865   -0.2284 C.3         1 GSH       0.0441
      8 CD1         2.0520   36.8930    0.1302 C.2         1 GSH       0.1785
      9 OE1         2.1492   37.1828    1.3187 O.2         1 GSH      -0.3969
     10 N2          2.1516   37.8329   -0.8004 N.am        1 GSH      -0.2648
     11 CA2         2.5061   39.2125   -0.5841 C.3         1 GSH       0.1395
     12 C2          1.3340   40.0160   -0.2590 C.2         1 GSH       0.2039
     13 O2          0.2611   39.7385   -0.8000 O.2         1 GSH      -0.3944
     14 CB2         3.2417   39.8142   -1.8098 C.3         1 GSH       0.0311
     15 SG2         4.4850   38.6975   -2.5177 S.3         1 GSH      -0.1735
     16 N3          1.4234   41.0539    0.5649 N.am        1 GSH      -0.2722
     17 CA3         0.3585   41.9585    0.8716 C.3         1 GSH       0.0833
     18 C3          0.7351   42.8752    1.9618 C.2         1 GSH       0.0570
     19 O31         0.9558   42.4143    3.2156 O.co2       1 GSH      -0.5669
     20 O32         0.7483   44.2062    1.7591 O.co2       1 GSH      -0.5669
     21 H1          1.8222   32.5808   -1.2744 H           1 GSH       0.2010
     22 H2          1.8460   32.8332    0.3788 H           1 GSH       0.2010
     23 H3          2.7438   31.5963   -0.3010 H           1 GSH       0.2010
     24 H4          4.1570   33.0562   -1.4076 H           1 GSH       0.1026
     25 H5          2.8038   34.8363   -2.0898 H           1 GSH       0.0363
     26 H6          3.9604   35.5461   -0.9838 H           1 GSH       0.0363
     27 H7          1.7466   34.9006    0.6856 H           1 GSH       0.0505
     28 H8          0.9696   35.3772   -0.8111 H           1 GSH       0.0505
     29 H9          2.0379   37.5640   -1.7263 H           1 GSH       0.1883
     30 H10         3.2250   39.2654    0.2470 H           1 GSH       0.0808
     31 H11         3.7692   40.7193   -1.4938 H           1 GSH       0.0422
     32 H12         2.5320   40.0982   -2.5967 H           1 GSH       0.0422
     33 H13         3.6033   38.1304   -3.3924 H           1 GSH       0.1019
     34 H14         2.2926   41.2317    0.9629 H           1 GSH       0.1873
     35 H15        -0.5311   41.3975    1.1636 H           1 GSH       0.0689
     36 H16         0.1177   42.5493   -0.0170 H           1 GSH       0.0689
@<TRIPOS>BOND
     1     1     2   1
     2     2     3   1
     3     2     6   1
     4     3     4  ar
     5     3     5  ar
     6     6     7   1
     7     7     8   1
     8     8     9   2
     9     8    10  am
    10    10    11   1
    11    11    12   1
    12    11    14   1
    13    12    13   2
    14    12    16  am
    15    14    15   1
    16    16    17   1
    17    17    18   1
    18    18    19  ar
    19    18    20  ar
    20     1    21   1
    21     1    22   1
    22     1    23   1
    23     2    24   1
    24     6    25   1
    25     6    26   1
    26     7    27   1
    27     7    28   1
    28    10    29   1
    29    11    30   1
    30    14    31   1
    31    14    32   1
    32    15    33   1
    33    16    34   1
    34    17    35   1
    35    17    36   1
@<TRIPOS>SUBSTRUCTURE
     1  GSH      2

