@<TRIPOS>MOLECULE
1lbk_ligand_001
    36    35
SMALL
GAST_HUCK
****
This file was generated by PARSER (from files_GN.cpp)

@<TRIPOS>ATOM
      1 N1          5.9728   38.4330   -1.5955 N.4         1 GSH       0.2328
      2 CA1         4.9825   39.3491   -2.1851 C.3         1 GSH       0.0304
      3 C1          5.6348   40.2664   -3.1484 C.2         1 GSH       0.0846
      4 O11         5.0093   41.4017   -3.5442 O.co2       1 GSH      -0.5643
      5 O12         6.8745   40.0211   -3.6471 O.co2       1 GSH      -0.5643
      6 CB1         4.1957   40.1176   -1.0592 C.3         1 GSH       0.0193
      7 CG1         2.6445   39.9901   -1.1512 C.3         1 GSH       0.0441
      8 CD1         2.0901   38.9041   -0.3695 C.2         1 GSH       0.1785
      9 OE1         2.2027   38.9642    0.8480 O.2         1 GSH      -0.3969
     10 N2          1.4427   37.8956   -0.9393 N.am        1 GSH      -0.2648
     11 CA2         0.7253   36.8327   -0.2799 C.3         1 GSH       0.1395
     12 C2          1.5202   35.6061   -0.3518 C.2         1 GSH       0.2039
     13 O2          1.0567   34.5822   -0.8359 O.2         1 GSH      -0.3944
     14 CB2        -0.6972   36.7270   -0.9095 C.3         1 GSH       0.0311
     15 SG2        -1.6377   38.2710   -0.8226 S.3         1 GSH      -0.1735
     16 N3          2.7654   35.6236    0.1224 N.am        1 GSH      -0.2722
     17 CA3         3.7320   34.5753    0.0206 C.3         1 GSH       0.0833
     18 C3          3.4398   33.4304    0.8949 C.2         1 GSH       0.0570
     19 O31         4.3780   32.9509    1.7426 O.co2       1 GSH      -0.5669
     20 O32         2.3147   32.6973    0.7023 O.co2       1 GSH      -0.5669
     21 H1          5.5035   37.8058   -0.9447 H           1 GSH       0.2010
     22 H2          6.6714   38.9817   -1.0958 H           1 GSH       0.2010
     23 H3          6.4203   37.8767   -2.3267 H           1 GSH       0.2010
     24 H4          4.2992   38.7235   -2.7674 H           1 GSH       0.1026
     25 H5          4.4455   41.1838   -1.0932 H           1 GSH       0.0363
     26 H6          4.5348   39.7812   -0.0702 H           1 GSH       0.0363
     27 H7          2.3483   39.9039   -2.2021 H           1 GSH       0.0505
     28 H8          2.1975   40.9197   -0.7893 H           1 GSH       0.0505
     29 H9          1.4275   37.8726   -1.9061 H           1 GSH       0.1883
     30 H10         0.5869   37.0470    0.7862 H           1 GSH       0.0808
     31 H11        -1.2850   35.9527   -0.4074 H           1 GSH       0.0422
     32 H12        -0.6176   36.4680   -1.9680 H           1 GSH       0.0422
     33 H13        -1.9038   38.1149    0.4994 H           1 GSH       0.1019
     34 H14         3.0900   36.4686    0.4759 H           1 GSH       0.1873
     35 H15         4.6999   34.9981    0.3067 H           1 GSH       0.0689
     36 H16         3.8297   34.2405   -1.0185 H           1 GSH       0.0689
@<TRIPOS>BOND
     1     1     2   1
     2     2     3   1
     3     2     6   1
     4     3     4  ar
     5     3     5  ar
     6     6     7   1
     7     7     8   1
     8     8     9   2
     9     8    10  am
    10    10    11   1
    11    11    12   1
    12    11    14   1
    13    12    13   2
    14    12    16  am
    15    14    15   1
    16    16    17   1
    17    17    18   1
    18    18    19  ar
    19    18    20  ar
    20     1    21   1
    21     1    22   1
    22     1    23   1
    23     2    24   1
    24     6    25   1
    25     6    26   1
    26     7    27   1
    27     7    28   1
    28    10    29   1
    29    11    30   1
    30    14    31   1
    31    14    32   1
    32    15    33   1
    33    16    34   1
    34    17    35   1
    35    17    36   1
@<TRIPOS>SUBSTRUCTURE
     1  GSH      2

