@<TRIPOS>MOLECULE
1lbk_ligand_067
    36    35
SMALL
GAST_HUCK
****
This file was generated by PARSER (from files_GN.cpp)

@<TRIPOS>ATOM
      1 N1          7.8151   33.7609   -1.6181 N.4         1 GSH       0.2328
      2 CA1         7.8965   34.8825   -2.5976 C.3         1 GSH       0.0304
      3 C1          8.6702   34.4391   -3.7868 C.2         1 GSH       0.0846
      4 O11         8.1877   33.4152   -4.5402 O.co2       1 GSH      -0.5643
      5 O12         9.7571   35.1104   -4.2582 O.co2       1 GSH      -0.5643
      6 CB1         8.5001   36.1233   -1.8906 C.3         1 GSH       0.0193
      7 CG1         7.5464   36.8307   -0.8827 C.3         1 GSH       0.0441
      8 CD1         6.8576   37.9619   -1.4890 C.2         1 GSH       0.1785
      9 OE1         7.1563   39.1066   -1.1313 O.2         1 GSH      -0.3969
     10 N2          5.9897   37.7439   -2.4598 N.am        1 GSH      -0.2648
     11 CA2         5.4768   38.6961   -3.4207 C.3         1 GSH       0.1395
     12 C2          6.4730   39.0822   -4.4254 C.2         1 GSH       0.2039
     13 O2          6.0671   39.4510   -5.5258 O.2         1 GSH      -0.3944
     14 CB2         4.7485   39.9277   -2.8104 C.3         1 GSH       0.0311
     15 SG2         3.3836   39.5150   -1.6872 S.3         1 GSH      -0.1735
     16 N3          7.7843   39.0230   -4.1950 N.am        1 GSH      -0.2722
     17 CA3         8.8377   39.2660   -5.1287 C.3         1 GSH       0.0833
     18 C3          9.9735   39.8385   -4.4039 C.2         1 GSH       0.0570
     19 O31        10.0352   41.1781   -4.1868 O.co2       1 GSH      -0.5669
     20 O32        10.9152   39.0420   -3.8417 O.co2       1 GSH      -0.5669
     21 H1          7.1001   34.0003   -0.9143 H           1 GSH       0.2010
     22 H2          8.7508   33.6865   -1.1724 H           1 GSH       0.2010
     23 H3          7.5644   32.8968   -2.1158 H           1 GSH       0.2010
     24 H4          6.8707   35.1153   -2.9402 H           1 GSH       0.1026
     25 H5          8.8647   36.8653   -2.6276 H           1 GSH       0.0363
     26 H6          9.3851   35.8117   -1.3274 H           1 GSH       0.0363
     27 H7          8.1454   37.1753   -0.0292 H           1 GSH       0.0505
     28 H8          6.7832   36.1302   -0.4908 H           1 GSH       0.0505
     29 H9          5.7659   36.8116   -2.6417 H           1 GSH       0.1883
     30 H10         4.7147   38.1194   -3.9488 H           1 GSH       0.0808
     31 H11         4.3167   40.5079   -3.6340 H           1 GSH       0.0422
     32 H12         5.4601   40.5730   -2.2860 H           1 GSH       0.0422
     33 H13         4.2006   38.9801   -0.7483 H           1 GSH       0.1019
     34 H14         8.0666   38.7171   -3.3174 H           1 GSH       0.1873
     35 H15         8.5358   39.9553   -5.9296 H           1 GSH       0.0689
     36 H16         9.1271   38.3074   -5.5796 H           1 GSH       0.0689
@<TRIPOS>BOND
     1     1     2   1
     2     2     3   1
     3     2     6   1
     4     3     4  ar
     5     3     5  ar
     6     6     7   1
     7     7     8   1
     8     8     9   2
     9     8    10  am
    10    10    11   1
    11    11    12   1
    12    11    14   1
    13    12    13   2
    14    12    16  am
    15    14    15   1
    16    16    17   1
    17    17    18   1
    18    18    19  ar
    19    18    20  ar
    20     1    21   1
    21     1    22   1
    22     1    23   1
    23     2    24   1
    24     6    25   1
    25     6    26   1
    26     7    27   1
    27     7    28   1
    28    10    29   1
    29    11    30   1
    30    14    31   1
    31    14    32   1
    32    15    33   1
    33    16    34   1
    34    17    35   1
    35    17    36   1
@<TRIPOS>SUBSTRUCTURE
     1  GSH      2

