@<TRIPOS>MOLECULE
1lbk_ligand_024
    36    35
SMALL
GAST_HUCK
****
This file was generated by PARSER (from files_GN.cpp)

@<TRIPOS>ATOM
      1 N1          9.5147   37.2521   -5.2506 N.4         1 GSH       0.2328
      2 CA1         8.6352   37.6900   -4.1546 C.3         1 GSH       0.0304
      3 C1          8.3408   39.1238   -4.3288 C.2         1 GSH       0.0846
      4 O11         7.0969   39.5995   -4.0671 O.co2       1 GSH      -0.5643
      5 O12         9.3347   40.0242   -4.5114 O.co2       1 GSH      -0.5643
      6 CB1         9.2930   37.3800   -2.7742 C.3         1 GSH       0.0193
      7 CG1         8.3189   37.4314   -1.5606 C.3         1 GSH       0.0441
      8 CD1         7.2741   36.4328   -1.6309 C.2         1 GSH       0.1785
      9 OE1         6.1644   36.7359   -2.0590 O.2         1 GSH      -0.3969
     10 N2          7.5295   35.1978   -1.2196 N.am        1 GSH      -0.2648
     11 CA2         6.6340   34.0712   -1.1994 C.3         1 GSH       0.1395
     12 C2          5.6836   34.1623   -0.0910 C.2         1 GSH       0.2039
     13 O2          6.0924   34.4485    1.0272 O.2         1 GSH      -0.3944
     14 CB2         7.4872   32.7768   -1.1155 C.3         1 GSH       0.0311
     15 SG2         6.5445   31.2433   -0.8659 S.3         1 GSH      -0.1735
     16 N3          4.4007   33.8859   -0.3046 N.am        1 GSH      -0.2722
     17 CA3         3.3626   33.8238    0.6687 C.3         1 GSH       0.0833
     18 C3          3.3101   32.5000    1.3127 C.2         1 GSH       0.0570
     19 O31         4.3798   32.0232    1.9834 O.co2       1 GSH      -0.5669
     20 O32         2.1665   31.7767    1.3157 O.co2       1 GSH      -0.5669
     21 H1          9.6859   36.2490   -5.1698 H           1 GSH       0.2010
     22 H2         10.4069   37.7493   -5.2154 H           1 GSH       0.2010
     23 H3          9.0618   37.4411   -6.1462 H           1 GSH       0.2010
     24 H4          7.7067   37.1116   -4.2382 H           1 GSH       0.1026
     25 H5         10.1033   38.0886   -2.5927 H           1 GSH       0.0363
     26 H6          9.7474   36.3866   -2.8182 H           1 GSH       0.0363
     27 H7          7.8910   38.4374   -1.4837 H           1 GSH       0.0505
     28 H8          8.8852   37.2684   -0.6380 H           1 GSH       0.0505
     29 H9          8.4374   35.0118   -0.9413 H           1 GSH       0.1883
     30 H10         6.0958   34.0471   -2.1579 H           1 GSH       0.0808
     31 H11         8.2297   32.8548   -0.3160 H           1 GSH       0.0422
     32 H12         8.0243   32.6547   -2.0637 H           1 GSH       0.0422
     33 H13         6.7254   31.2581    0.4826 H           1 GSH       0.1019
     34 H14         4.1506   33.6506   -1.2161 H           1 GSH       0.1873
     35 H15         2.4128   34.0076    0.1492 H           1 GSH       0.0689
     36 H16         3.4820   34.6045    1.4305 H           1 GSH       0.0689
@<TRIPOS>BOND
     1     1     2   1
     2     2     3   1
     3     2     6   1
     4     3     4  ar
     5     3     5  ar
     6     6     7   1
     7     7     8   1
     8     8     9   2
     9     8    10  am
    10    10    11   1
    11    11    12   1
    12    11    14   1
    13    12    13   2
    14    12    16  am
    15    14    15   1
    16    16    17   1
    17    17    18   1
    18    18    19  ar
    19    18    20  ar
    20     1    21   1
    21     1    22   1
    22     1    23   1
    23     2    24   1
    24     6    25   1
    25     6    26   1
    26     7    27   1
    27     7    28   1
    28    10    29   1
    29    11    30   1
    30    14    31   1
    31    14    32   1
    32    15    33   1
    33    16    34   1
    34    17    35   1
    35    17    36   1
@<TRIPOS>SUBSTRUCTURE
     1  GSH      2

