@<TRIPOS>MOLECULE
1lbk_ligand_045
    36    35
SMALL
GAST_HUCK
****
This file was generated by PARSER (from files_GN.cpp)

@<TRIPOS>ATOM
      1 N1          5.7255   38.7002   -1.6429 N.4         1 GSH       0.2328
      2 CA1         6.9267   38.4758   -2.4575 C.3         1 GSH       0.0304
      3 C1          7.1006   39.5828   -3.4209 C.2         1 GSH       0.0846
      4 O11         6.2916   40.6755   -3.4080 O.co2       1 GSH      -0.5643
      5 O12         8.2670   39.6754   -4.1099 O.co2       1 GSH      -0.5643
      6 CB1         6.8432   37.0858   -3.1641 C.3         1 GSH       0.0193
      7 CG1         7.6499   35.9924   -2.3926 C.3         1 GSH       0.0441
      8 CD1         7.2087   34.6121   -2.5202 C.2         1 GSH       0.1785
      9 OE1         6.2353   34.3118   -3.2077 O.2         1 GSH      -0.3969
     10 N2          7.7950   33.7235   -1.7241 N.am        1 GSH      -0.2648
     11 CA2         7.2832   32.4147   -1.3802 C.3         1 GSH       0.1395
     12 C2          6.0186   32.5605   -0.6674 C.2         1 GSH       0.2039
     13 O2          5.1355   31.7291   -0.8546 O.2         1 GSH      -0.3944
     14 CB2         8.3505   31.6511   -0.5578 C.3         1 GSH       0.0311
     15 SG2         7.7547   30.1394    0.2557 S.3         1 GSH      -0.1735
     16 N3          5.8276   33.5960    0.1433 N.am        1 GSH      -0.2722
     17 CA3         4.6406   33.9002    0.8724 C.3         1 GSH       0.0833
     18 C3          3.7401   34.8100    0.1512 C.2         1 GSH       0.0570
     19 O31         4.1770   35.4612   -0.9530 O.co2       1 GSH      -0.5669
     20 O32         2.4706   35.0236    0.5688 O.co2       1 GSH      -0.5669
     21 H1          5.6510   38.0004   -0.9027 H           1 GSH       0.2010
     22 H2          4.8929   38.6598   -2.2411 H           1 GSH       0.2010
     23 H3          5.7919   39.6219   -1.2143 H           1 GSH       0.2010
     24 H4          7.7966   38.5038   -1.7849 H           1 GSH       0.1026
     25 H5          7.2501   37.1352   -4.1821 H           1 GSH       0.0363
     26 H6          5.7878   36.8018   -3.2506 H           1 GSH       0.0363
     27 H7          7.6261   36.2284   -1.3206 H           1 GSH       0.0505
     28 H8          8.6979   36.0505   -2.7272 H           1 GSH       0.0505
     29 H9          8.5994   34.0193   -1.2562 H           1 GSH       0.1883
     30 H10         7.1287   31.8607   -2.3111 H           1 GSH       0.0808
     31 H11         8.7911   32.2983    0.2054 H           1 GSH       0.0422
     32 H12         9.1599   31.3365   -1.2304 H           1 GSH       0.0422
     33 H13         6.8061   30.7928    0.9778 H           1 GSH       0.1019
     34 H14         6.5700   34.2157    0.2471 H           1 GSH       0.1873
     35 H15         4.9420   34.3832    1.8103 H           1 GSH       0.0689
     36 H16         4.1257   32.9703    1.1330 H           1 GSH       0.0689
@<TRIPOS>BOND
     1     1     2   1
     2     2     3   1
     3     2     6   1
     4     3     4  ar
     5     3     5  ar
     6     6     7   1
     7     7     8   1
     8     8     9   2
     9     8    10  am
    10    10    11   1
    11    11    12   1
    12    11    14   1
    13    12    13   2
    14    12    16  am
    15    14    15   1
    16    16    17   1
    17    17    18   1
    18    18    19  ar
    19    18    20  ar
    20     1    21   1
    21     1    22   1
    22     1    23   1
    23     2    24   1
    24     6    25   1
    25     6    26   1
    26     7    27   1
    27     7    28   1
    28    10    29   1
    29    11    30   1
    30    14    31   1
    31    14    32   1
    32    15    33   1
    33    16    34   1
    34    17    35   1
    35    17    36   1
@<TRIPOS>SUBSTRUCTURE
     1  GSH      2

