@<TRIPOS>MOLECULE
1lbk_ligand_043
    36    35
SMALL
GAST_HUCK
****
This file was generated by PARSER (from files_GN.cpp)

@<TRIPOS>ATOM
      1 N1          4.0768   38.6895   -1.8358 N.4         1 GSH       0.2328
      2 CA1         5.5245   38.9771   -1.8069 C.3         1 GSH       0.0304
      3 C1          5.8703   40.0285   -2.8030 C.2         1 GSH       0.0846
      4 O11         7.0940   40.0014   -3.4017 O.co2       1 GSH      -0.5643
      5 O12         5.2519   41.2312   -2.7308 O.co2       1 GSH      -0.5643
      6 CB1         6.3402   37.6471   -1.9616 C.3         1 GSH       0.0193
      7 CG1         6.3469   37.0308   -3.4039 C.3         1 GSH       0.0441
      8 CD1         7.6531   36.9351   -4.0403 C.2         1 GSH       0.1785
      9 OE1         8.3429   37.9528   -4.1133 O.2         1 GSH      -0.3969
     10 N2          8.0663   35.7876   -4.5782 N.am        1 GSH      -0.2648
     11 CA2         9.2900   35.5502   -5.3009 C.3         1 GSH       0.1395
     12 C2          8.9748   34.7439   -6.4846 C.2         1 GSH       0.2039
     13 O2          8.7842   33.5333   -6.3402 O.2         1 GSH      -0.3944
     14 CB2        10.3420   34.9264   -4.3347 C.3         1 GSH       0.0311
     15 SG2        11.9676   34.6897   -5.0802 S.3         1 GSH      -0.1735
     16 N3          8.7942   35.3376   -7.6580 N.am        1 GSH      -0.2722
     17 CA3         8.4572   34.7185   -8.9051 C.3         1 GSH       0.0833
     18 C3          7.0567   35.0108   -9.2602 C.2         1 GSH       0.0570
     19 O31         6.7484   35.4629  -10.5127 O.co2       1 GSH      -0.5669
     20 O32         6.0497   34.6244   -8.4511 O.co2       1 GSH      -0.5669
     21 H1          3.8699   38.0442   -1.0716 H           1 GSH       0.2010
     22 H2          3.8059   38.2758   -2.7333 H           1 GSH       0.2010
     23 H3          3.5512   39.5518   -1.6848 H           1 GSH       0.2010
     24 H4          5.7244   39.3762   -0.8148 H           1 GSH       0.1026
     25 H5          5.9239   36.9007   -1.2695 H           1 GSH       0.0363
     26 H6          7.3651   37.8392   -1.6172 H           1 GSH       0.0363
     27 H7          5.7226   37.6495   -4.0619 H           1 GSH       0.0505
     28 H8          5.8793   36.0304   -3.3642 H           1 GSH       0.0505
     29 H9          7.4707   35.0148   -4.4861 H           1 GSH       0.1883
     30 H10         9.7181   36.5003   -5.6485 H           1 GSH       0.0808
     31 H11         9.9968   33.9626   -3.9625 H           1 GSH       0.0422
     32 H12        10.4776   35.5808   -3.4776 H           1 GSH       0.0422
     33 H13        12.5577   34.3372   -3.8899 H           1 GSH       0.1019
     34 H14         8.8819   36.3043   -7.6855 H           1 GSH       0.1873
     35 H15         8.5915   33.6290   -8.8874 H           1 GSH       0.0689
     36 H16         9.1200   35.1276   -9.6720 H           1 GSH       0.0689
@<TRIPOS>BOND
     1     1     2   1
     2     2     3   1
     3     2     6   1
     4     3     4  ar
     5     3     5  ar
     6     6     7   1
     7     7     8   1
     8     8     9   2
     9     8    10  am
    10    10    11   1
    11    11    12   1
    12    11    14   1
    13    12    13   2
    14    12    16  am
    15    14    15   1
    16    16    17   1
    17    17    18   1
    18    18    19  ar
    19    18    20  ar
    20     1    21   1
    21     1    22   1
    22     1    23   1
    23     2    24   1
    24     6    25   1
    25     6    26   1
    26     7    27   1
    27     7    28   1
    28    10    29   1
    29    11    30   1
    30    14    31   1
    31    14    32   1
    32    15    33   1
    33    16    34   1
    34    17    35   1
    35    17    36   1
@<TRIPOS>SUBSTRUCTURE
     1  GSH      2

