@<TRIPOS>MOLECULE
1lbk_ligand_063
    36    35
SMALL
GAST_HUCK
****
This file was generated by PARSER (from files_GN.cpp)

@<TRIPOS>ATOM
      1 N1          5.9159   38.3848   -1.6471 N.4         1 GSH       0.2328
      2 CA1         4.9201   39.3004   -2.2304 C.3         1 GSH       0.0304
      3 C1          5.5861   40.2419   -3.1654 C.2         1 GSH       0.0846
      4 O11         6.8454   40.0275   -3.6126 O.co2       1 GSH      -0.5643
      5 O12         4.9317   41.3304   -3.6280 O.co2       1 GSH      -0.5643
      6 CB1         4.1327   40.0353   -1.0937 C.3         1 GSH       0.0193
      7 CG1         2.6252   39.6466   -0.9822 C.3         1 GSH       0.0441
      8 CD1         1.8432   40.6650   -0.3014 C.2         1 GSH       0.1785
      9 OE1         2.2267   41.0371    0.8028 O.2         1 GSH      -0.3969
     10 N2          0.7892   41.2136   -0.8855 N.am        1 GSH      -0.2648
     11 CA2         0.0504   42.3914   -0.5106 C.3         1 GSH       0.1395
     12 C2          0.6679   43.6521   -0.9066 C.2         1 GSH       0.2039
     13 O2          0.0291   44.6835   -0.7217 O.2         1 GSH      -0.3944
     14 CB2        -0.5150   42.3664    0.9478 C.3         1 GSH       0.0311
     15 SG2         0.4924   43.0080    2.3198 S.3         1 GSH      -0.1735
     16 N3          1.8621   43.6987   -1.4868 N.am        1 GSH      -0.2722
     17 CA3         2.5375   44.8783   -1.9163 C.3         1 GSH       0.0833
     18 C3          1.9333   45.5353   -3.0935 C.2         1 GSH       0.0570
     19 O31         2.3807   46.7492   -3.4896 O.co2       1 GSH      -0.5669
     20 O32         0.8729   45.0076   -3.7515 O.co2       1 GSH      -0.5669
     21 H1          5.4539   37.7670   -0.9814 H           1 GSH       0.2010
     22 H2          6.6181   38.9447   -1.1575 H           1 GSH       0.2010
     23 H3          6.3599   37.8357   -2.3852 H           1 GSH       0.2010
     24 H4          4.2402   38.6864   -2.8259 H           1 GSH       0.1026
     25 H5          4.2148   41.1226   -1.2324 H           1 GSH       0.0363
     26 H6          4.6003   39.8305   -0.1223 H           1 GSH       0.0363
     27 H7          2.5300   38.7131   -0.4213 H           1 GSH       0.0505
     28 H8          2.2130   39.4599   -1.9826 H           1 GSH       0.0505
     29 H9          0.5105   40.8017   -1.7217 H           1 GSH       0.1883
     30 H10        -0.8317   42.3305   -1.1551 H           1 GSH       0.0808
     31 H11        -0.8010   41.3420    1.2006 H           1 GSH       0.0422
     32 H12        -1.4327   42.9578    0.9621 H           1 GSH       0.0422
     33 H13         1.6159   43.2979    1.6082 H           1 GSH       0.1019
     34 H14         2.3413   42.8655   -1.5953 H           1 GSH       0.1873
     35 H15         3.5614   44.6112   -2.1753 H           1 GSH       0.0689
     36 H16         2.5837   45.5917   -1.0906 H           1 GSH       0.0689
@<TRIPOS>BOND
     1     1     2   1
     2     2     3   1
     3     2     6   1
     4     3     4  ar
     5     3     5  ar
     6     6     7   1
     7     7     8   1
     8     8     9   2
     9     8    10  am
    10    10    11   1
    11    11    12   1
    12    11    14   1
    13    12    13   2
    14    12    16  am
    15    14    15   1
    16    16    17   1
    17    17    18   1
    18    18    19  ar
    19    18    20  ar
    20     1    21   1
    21     1    22   1
    22     1    23   1
    23     2    24   1
    24     6    25   1
    25     6    26   1
    26     7    27   1
    27     7    28   1
    28    10    29   1
    29    11    30   1
    30    14    31   1
    31    14    32   1
    32    15    33   1
    33    16    34   1
    34    17    35   1
    35    17    36   1
@<TRIPOS>SUBSTRUCTURE
     1  GSH      2

