@<TRIPOS>MOLECULE
1lbk_ligand_050
    36    35
SMALL
GAST_HUCK
****
This file was generated by PARSER (from files_GN.cpp)

@<TRIPOS>ATOM
      1 N1          5.3171   38.9792   -1.6538 N.4         1 GSH       0.2328
      2 CA1         4.3356   40.0682   -1.8450 C.3         1 GSH       0.0304
      3 C1          5.0439   41.2568   -2.3779 C.2         1 GSH       0.0846
      4 O11         4.4811   42.4806   -2.2616 O.co2       1 GSH      -0.5643
      5 O12         5.8142   41.1040   -3.4809 O.co2       1 GSH      -0.5643
      6 CB1         3.5527   40.3097   -0.5115 C.3         1 GSH       0.0193
      7 CG1         2.4473   39.2636   -0.1386 C.3         1 GSH       0.0441
      8 CD1         2.6933   37.8586   -0.4538 C.2         1 GSH       0.1785
      9 OE1         3.1573   37.5810   -1.5507 O.2         1 GSH      -0.3969
     10 N2          2.3409   36.8959    0.3888 N.am        1 GSH      -0.2648
     11 CA2         2.5062   35.4689    0.2360 C.3         1 GSH       0.1395
     12 C2          3.8621   35.1138   -0.1693 C.2         1 GSH       0.2039
     13 O2          4.1959   35.2510   -1.3462 O.2         1 GSH      -0.3944
     14 CB2         1.4347   34.7470   -0.6556 C.3         1 GSH       0.0311
     15 SG2         0.0772   35.7736   -1.2726 S.3         1 GSH      -0.1735
     16 N3          4.7567   34.6614    0.7075 N.am        1 GSH      -0.2722
     17 CA3         6.1392   34.4248    0.4296 C.3         1 GSH       0.0833
     18 C3          6.3931   33.1162   -0.1962 C.2         1 GSH       0.0570
     19 O31         7.5617   32.5015    0.0772 O.co2       1 GSH      -0.5669
     20 O32         5.7753   32.7788   -1.3511 O.co2       1 GSH      -0.5669
     21 H1          4.9120   38.2265   -1.0953 H           1 GSH       0.2010
     22 H2          6.1436   39.3358   -1.1583 H           1 GSH       0.2010
     23 H3          5.6062   38.6065   -2.5623 H           1 GSH       0.2010
     24 H4          3.6278   39.7788   -2.6214 H           1 GSH       0.1026
     25 H5          3.0459   41.2807   -0.5577 H           1 GSH       0.0363
     26 H6          4.2727   40.3828    0.3130 H           1 GSH       0.0363
     27 H7          1.5196   39.5438   -0.6521 H           1 GSH       0.0505
     28 H8          2.2553   39.3762    0.9357 H           1 GSH       0.0505
     29 H9          1.9232   37.1840    1.2160 H           1 GSH       0.1883
     30 H10         2.3467   35.0943    1.2498 H           1 GSH       0.0808
     31 H11         0.9765   33.9431   -0.0631 H           1 GSH       0.0422
     32 H12         1.8975   34.2674   -1.5234 H           1 GSH       0.0422
     33 H13         0.8889   36.5240   -2.0488 H           1 GSH       0.1019
     34 H14         4.4622   34.5583    1.6321 H           1 GSH       0.1873
     35 H15         6.6673   34.4658    1.3833 H           1 GSH       0.0689
     36 H16         6.5613   35.2119   -0.2029 H           1 GSH       0.0689
@<TRIPOS>BOND
     1     1     2   1
     2     2     3   1
     3     2     6   1
     4     3     4  ar
     5     3     5  ar
     6     6     7   1
     7     7     8   1
     8     8     9   2
     9     8    10  am
    10    10    11   1
    11    11    12   1
    12    11    14   1
    13    12    13   2
    14    12    16  am
    15    14    15   1
    16    16    17   1
    17    17    18   1
    18    18    19  ar
    19    18    20  ar
    20     1    21   1
    21     1    22   1
    22     1    23   1
    23     2    24   1
    24     6    25   1
    25     6    26   1
    26     7    27   1
    27     7    28   1
    28    10    29   1
    29    11    30   1
    30    14    31   1
    31    14    32   1
    32    15    33   1
    33    16    34   1
    34    17    35   1
    35    17    36   1
@<TRIPOS>SUBSTRUCTURE
     1  GSH      2

