@<TRIPOS>MOLECULE
1lbk_ligand_068
    36    35
SMALL
GAST_HUCK
****
This file was generated by PARSER (from files_GN.cpp)

@<TRIPOS>ATOM
      1 N1          4.5182   41.0352   -0.4829 N.4         1 GSH       0.2328
      2 CA1         4.3299   39.7868    0.2665 C.3         1 GSH       0.0304
      3 C1          4.0906   38.6478   -0.6644 C.2         1 GSH       0.0846
      4 O11         2.9497   37.9318   -0.7124 O.co2       1 GSH      -0.5643
      5 O12         5.0816   38.2107   -1.4926 O.co2       1 GSH      -0.5643
      6 CB1         3.2945   39.8960    1.4587 C.3         1 GSH       0.0193
      7 CG1         2.3881   41.1647    1.5625 C.3         1 GSH       0.0441
      8 CD1         1.6495   41.4868    0.3654 C.2         1 GSH       0.1785
      9 OE1         1.7379   42.6435   -0.0830 O.2         1 GSH      -0.3969
     10 N2          0.9403   40.5635   -0.2513 N.am        1 GSH      -0.2648
     11 CA2         0.3153   40.6639   -1.5412 C.3         1 GSH       0.1395
     12 C2          1.3626   40.6823   -2.5743 C.2         1 GSH       0.2039
     13 O2          1.1813   41.3359   -3.6055 O.2         1 GSH      -0.3944
     14 CB2        -0.7698   41.7910   -1.5915 C.3         1 GSH       0.0311
     15 SG2        -2.1458   41.5067   -0.4422 S.3         1 GSH      -0.1735
     16 N3          2.4562   39.9327   -2.4268 N.am        1 GSH      -0.2722
     17 CA3         3.5294   39.6689   -3.3611 C.3         1 GSH       0.0833
     18 C3          4.7050   40.5470   -3.2469 C.2         1 GSH       0.0570
     19 O31         4.6113   41.8409   -2.8801 O.co2       1 GSH      -0.5669
     20 O32         5.9363   40.0814   -3.5890 O.co2       1 GSH      -0.5669
     21 H1          4.9972   41.7034    0.1329 H           1 GSH       0.2010
     22 H2          3.5777   41.4008   -0.7426 H           1 GSH       0.2010
     23 H3          5.0754   40.8677   -1.3382 H           1 GSH       0.2010
     24 H4          5.3114   39.5827    0.7039 H           1 GSH       0.1026
     25 H5          3.8563   39.8665    2.3941 H           1 GSH       0.0363
     26 H6          2.6516   39.0145    1.4979 H           1 GSH       0.0363
     27 H7          3.0244   42.0000    1.8548 H           1 GSH       0.0505
     28 H8          1.6735   41.0121    2.3727 H           1 GSH       0.0505
     29 H9          0.9047   39.6832    0.1701 H           1 GSH       0.1883
     30 H10        -0.2211   39.7187   -1.6706 H           1 GSH       0.0808
     31 H11        -1.1922   41.8557   -2.5981 H           1 GSH       0.0422
     32 H12        -0.3198   42.7611   -1.3482 H           1 GSH       0.0422
     33 H13        -3.0824   41.8740   -1.3608 H           1 GSH       0.1019
     34 H14         2.4708   39.3744   -1.6194 H           1 GSH       0.1873
     35 H15         3.1643   39.7257   -4.3978 H           1 GSH       0.0689
     36 H16         3.8736   38.6417   -3.1602 H           1 GSH       0.0689
@<TRIPOS>BOND
     1     1     2   1
     2     2     3   1
     3     2     6   1
     4     3     4  ar
     5     3     5  ar
     6     6     7   1
     7     7     8   1
     8     8     9   2
     9     8    10  am
    10    10    11   1
    11    11    12   1
    12    11    14   1
    13    12    13   2
    14    12    16  am
    15    14    15   1
    16    16    17   1
    17    17    18   1
    18    18    19  ar
    19    18    20  ar
    20     1    21   1
    21     1    22   1
    22     1    23   1
    23     2    24   1
    24     6    25   1
    25     6    26   1
    26     7    27   1
    27     7    28   1
    28    10    29   1
    29    11    30   1
    30    14    31   1
    31    14    32   1
    32    15    33   1
    33    16    34   1
    34    17    35   1
    35    17    36   1
@<TRIPOS>SUBSTRUCTURE
     1  GSH      2

