@<TRIPOS>MOLECULE
1lbk_ligand_014
    36    35
SMALL
GAST_HUCK
****
This file was generated by PARSER (from files_GN.cpp)

@<TRIPOS>ATOM
      1 N1          5.2865   38.9245   -1.6479 N.4         1 GSH       0.2328
      2 CA1         4.3994   40.0988   -1.6599 C.3         1 GSH       0.0304
      3 C1          5.0438   41.2196   -2.3861 C.2         1 GSH       0.0846
      4 O11         5.7279   40.9617   -3.5215 O.co2       1 GSH      -0.5643
      5 O12         4.4671   42.4416   -2.3482 O.co2       1 GSH      -0.5643
      6 CB1         3.9836   40.4744   -0.1973 C.3         1 GSH       0.0193
      7 CG1         2.8241   39.6117    0.3821 C.3         1 GSH       0.0441
      8 CD1         1.5827   39.6307   -0.3772 C.2         1 GSH       0.1785
      9 OE1         1.3889   40.4926   -1.2262 O.2         1 GSH      -0.3969
     10 N2          0.6899   38.6567   -0.1806 N.am        1 GSH      -0.2648
     11 CA2        -0.4772   38.3967   -0.9819 C.3         1 GSH       0.1395
     12 C2         -1.4693   39.4650   -0.8214 C.2         1 GSH       0.2039
     13 O2         -2.5338   39.2390   -0.2351 O.2         1 GSH      -0.3944
     14 CB2        -0.9848   36.9497   -0.6756 C.3         1 GSH       0.0311
     15 SG2        -1.9240   36.1993   -2.0298 S.3         1 GSH      -0.1735
     16 N3         -1.1703   40.6990   -1.2109 N.am        1 GSH      -0.2722
     17 CA3        -1.8795   41.9065   -0.9094 C.3         1 GSH       0.0833
     18 C3         -0.9103   42.9710   -0.5738 C.2         1 GSH       0.0570
     19 O31        -0.7976   43.4160    0.7001 O.co2       1 GSH      -0.5669
     20 O32        -0.3630   43.7295   -1.5533 O.co2       1 GSH      -0.5669
     21 H1          4.8728   38.1793   -1.0838 H           1 GSH       0.2010
     22 H2          6.1832   39.1992   -1.2403 H           1 GSH       0.2010
     23 H3          5.4316   38.5881   -2.6045 H           1 GSH       0.2010
     24 H4          3.5213   39.8204   -2.2469 H           1 GSH       0.1026
     25 H5          3.6673   41.5188   -0.1465 H           1 GSH       0.0363
     26 H6          4.8557   40.3750    0.4573 H           1 GSH       0.0363
     27 H7          2.5982   39.9626    1.3923 H           1 GSH       0.0505
     28 H8          3.1753   38.5796    0.4609 H           1 GSH       0.0505
     29 H9          0.9096   37.9792    0.4822 H           1 GSH       0.1883
     30 H10        -0.1416   38.3777   -2.0285 H           1 GSH       0.0808
     31 H11        -1.5872   36.9234    0.2359 H           1 GSH       0.0422
     32 H12        -0.1277   36.2879   -0.5140 H           1 GSH       0.0422
     33 H13        -2.8925   37.1496   -2.0463 H           1 GSH       0.1019
     34 H14        -0.3296   40.8166   -1.6852 H           1 GSH       0.1873
     35 H15        -2.5835   41.7835   -0.0814 H           1 GSH       0.0689
     36 H16        -2.4505   42.2008   -1.7929 H           1 GSH       0.0689
@<TRIPOS>BOND
     1     1     2   1
     2     2     3   1
     3     2     6   1
     4     3     4  ar
     5     3     5  ar
     6     6     7   1
     7     7     8   1
     8     8     9   2
     9     8    10  am
    10    10    11   1
    11    11    12   1
    12    11    14   1
    13    12    13   2
    14    12    16  am
    15    14    15   1
    16    16    17   1
    17    17    18   1
    18    18    19  ar
    19    18    20  ar
    20     1    21   1
    21     1    22   1
    22     1    23   1
    23     2    24   1
    24     6    25   1
    25     6    26   1
    26     7    27   1
    27     7    28   1
    28    10    29   1
    29    11    30   1
    30    14    31   1
    31    14    32   1
    32    15    33   1
    33    16    34   1
    34    17    35   1
    35    17    36   1
@<TRIPOS>SUBSTRUCTURE
     1  GSH      2

