@<TRIPOS>MOLECULE
1lbk_ligand_002
    36    35
SMALL
GAST_HUCK
****
This file was generated by PARSER (from files_GN.cpp)

@<TRIPOS>ATOM
      1 N1          6.1288   38.2435   -1.6355 N.4         1 GSH       0.2328
      2 CA1         5.6992   38.7256   -2.9593 C.3         1 GSH       0.0304
      3 C1          6.8477   38.6037   -3.8876 C.2         1 GSH       0.0846
      4 O11         7.4709   37.4094   -4.0044 O.co2       1 GSH      -0.5643
      5 O12         7.4995   39.6871   -4.3662 O.co2       1 GSH      -0.5643
      6 CB1         5.1103   40.1657   -2.8626 C.3         1 GSH       0.0193
      7 CG1         4.3092   40.4843   -1.5658 C.3         1 GSH       0.0441
      8 CD1         2.9543   39.9526   -1.5793 C.2         1 GSH       0.1785
      9 OE1         2.1009   40.5532   -2.2244 O.2         1 GSH      -0.3969
     10 N2          2.6278   38.8744   -0.8728 N.am        1 GSH      -0.2648
     11 CA2         1.3107   38.2964   -0.7813 C.3         1 GSH       0.1395
     12 C2          0.2610   39.2822   -0.5161 C.2         1 GSH       0.2039
     13 O2         -0.8763   39.0148   -0.8842 O.2         1 GSH      -0.3944
     14 CB2         1.3005   37.1510    0.2745 C.3         1 GSH       0.0311
     15 SG2         2.1018   35.6294   -0.2932 S.3         1 GSH      -0.1735
     16 N3          0.5140   40.4479    0.0787 N.am        1 GSH      -0.2722
     17 CA3        -0.4057   41.5179    0.3115 C.3         1 GSH       0.0833
     18 C3          0.0742   42.7205   -0.3803 C.2         1 GSH       0.0570
     19 O31         0.4696   42.6520   -1.6714 O.co2       1 GSH      -0.5669
     20 O32         0.0205   43.9341    0.2223 O.co2       1 GSH      -0.5669
     21 H1          5.3072   38.0162   -1.0737 H           1 GSH       0.2010
     22 H2          6.6664   38.9811   -1.1684 H           1 GSH       0.2010
     23 H3          6.7100   37.4053   -1.7371 H           1 GSH       0.2010
     24 H4          4.9073   38.0617   -3.3190 H           1 GSH       0.1026
     25 H5          4.4759   40.3481   -3.7342 H           1 GSH       0.0363
     26 H6          5.9350   40.8884   -2.9159 H           1 GSH       0.0363
     27 H7          4.2495   41.5739   -1.4495 H           1 GSH       0.0505
     28 H8          4.8570   40.1097   -0.6968 H           1 GSH       0.0505
     29 H9          3.3490   38.4276   -0.3935 H           1 GSH       0.1883
     30 H10         1.0785   37.8392   -1.7502 H           1 GSH       0.0808
     31 H11         0.2697   36.8912    0.5305 H           1 GSH       0.0422
     32 H12         1.8016   37.4738    1.1887 H           1 GSH       0.0422
     33 H13         1.5050   35.6580   -1.5220 H           1 GSH       0.1019
     34 H14         1.4207   40.5949    0.3937 H           1 GSH       0.1873
     35 H15        -0.4602   41.7028    1.3893 H           1 GSH       0.0689
     36 H16        -1.4117   41.3028   -0.0432 H           1 GSH       0.0689
@<TRIPOS>BOND
     1     1     2   1
     2     2     3   1
     3     2     6   1
     4     3     4  ar
     5     3     5  ar
     6     6     7   1
     7     7     8   1
     8     8     9   2
     9     8    10  am
    10    10    11   1
    11    11    12   1
    12    11    14   1
    13    12    13   2
    14    12    16  am
    15    14    15   1
    16    16    17   1
    17    17    18   1
    18    18    19  ar
    19    18    20  ar
    20     1    21   1
    21     1    22   1
    22     1    23   1
    23     2    24   1
    24     6    25   1
    25     6    26   1
    26     7    27   1
    27     7    28   1
    28    10    29   1
    29    11    30   1
    30    14    31   1
    31    14    32   1
    32    15    33   1
    33    16    34   1
    34    17    35   1
    35    17    36   1
@<TRIPOS>SUBSTRUCTURE
     1  GSH      2

