@<TRIPOS>MOLECULE
1lbk_ligand_070
    36    35
SMALL
GAST_HUCK
****
This file was generated by PARSER (from files_GN.cpp)

@<TRIPOS>ATOM
      1 N1          5.3884   34.0645    0.0633 N.4         1 GSH       0.2328
      2 CA1         4.5583   35.1238   -0.5266 C.3         1 GSH       0.0304
      3 C1          3.9780   34.6081   -1.7803 C.2         1 GSH       0.0846
      4 O11         2.6916   34.1978   -1.8214 O.co2       1 GSH      -0.5643
      5 O12         4.7348   34.4824   -2.8960 O.co2       1 GSH      -0.5643
      6 CB1         5.4039   36.4190   -0.7191 C.3         1 GSH       0.0193
      7 CG1         4.8800   37.6851    0.0317 C.3         1 GSH       0.0441
      8 CD1         5.0956   38.9393   -0.6705 C.2         1 GSH       0.1785
      9 OE1         5.8638   39.7622   -0.1900 O.2         1 GSH      -0.3969
     10 N2          4.4572   39.1810   -1.8081 N.am        1 GSH      -0.2648
     11 CA2         4.5153   40.3648   -2.6200 C.3         1 GSH       0.1395
     12 C2          5.7852   40.4433   -3.3327 C.2         1 GSH       0.2039
     13 O2          6.2952   41.5372   -3.5666 O.2         1 GSH      -0.3944
     14 CB2         4.1293   41.6498   -1.8275 C.3         1 GSH       0.0311
     15 SG2         2.3522   41.7491   -1.5228 S.3         1 GSH      -0.1735
     16 N3          6.4264   39.3223   -3.6622 N.am        1 GSH      -0.2722
     17 CA3         7.6888   39.2344   -4.3270 C.3         1 GSH       0.0833
     18 C3          8.8196   39.2554   -3.3822 C.2         1 GSH       0.0570
     19 O31         9.5167   40.3950   -3.1639 O.co2       1 GSH      -0.5669
     20 O32         9.2293   38.1117   -2.7872 O.co2       1 GSH      -0.5669
     21 H1          5.7799   34.3881    0.9504 H           1 GSH       0.2010
     22 H2          6.1500   33.8262   -0.5753 H           1 GSH       0.2010
     23 H3          4.8151   33.2351    0.2299 H           1 GSH       0.2010
     24 H4          3.7546   35.3340    0.1870 H           1 GSH       0.1026
     25 H5          5.5257   36.6281   -1.7885 H           1 GSH       0.0363
     26 H6          6.4076   36.2022   -0.3354 H           1 GSH       0.0363
     27 H7          5.3907   37.7296    1.0000 H           1 GSH       0.0505
     28 H8          3.8149   37.5842    0.2583 H           1 GSH       0.0505
     29 H9          3.8580   38.4890   -2.1243 H           1 GSH       0.1883
     30 H10         3.7413   40.2469   -3.3841 H           1 GSH       0.0808
     31 H11         4.4176   42.5302   -2.4038 H           1 GSH       0.0422
     32 H12         4.6482   41.6788   -0.8697 H           1 GSH       0.0422
     33 H13         2.5174   42.2485   -0.2694 H           1 GSH       0.1019
     34 H14         6.0009   38.4837   -3.4145 H           1 GSH       0.1873
     35 H15         7.7855   40.0895   -4.9980 H           1 GSH       0.0689
     36 H16         7.7135   38.3240   -4.9344 H           1 GSH       0.0689
@<TRIPOS>BOND
     1     1     2   1
     2     2     3   1
     3     2     6   1
     4     3     4  ar
     5     3     5  ar
     6     6     7   1
     7     7     8   1
     8     8     9   2
     9     8    10  am
    10    10    11   1
    11    11    12   1
    12    11    14   1
    13    12    13   2
    14    12    16  am
    15    14    15   1
    16    16    17   1
    17    17    18   1
    18    18    19  ar
    19    18    20  ar
    20     1    21   1
    21     1    22   1
    22     1    23   1
    23     2    24   1
    24     6    25   1
    25     6    26   1
    26     7    27   1
    27     7    28   1
    28    10    29   1
    29    11    30   1
    30    14    31   1
    31    14    32   1
    32    15    33   1
    33    16    34   1
    34    17    35   1
    35    17    36   1
@<TRIPOS>SUBSTRUCTURE
     1  GSH      2

