@<TRIPOS>MOLECULE
1lbk_ligand_037
    36    35
SMALL
GAST_HUCK
****
This file was generated by PARSER (from files_GN.cpp)

@<TRIPOS>ATOM
      1 N1         11.4013   34.7407   -6.7479 N.4         1 GSH       0.2328
      2 CA1         9.9886   34.4581   -6.4477 C.3         1 GSH       0.0304
      3 C1          9.2658   34.2981   -7.7250 C.2         1 GSH       0.0846
      4 O11         8.3729   35.2023   -8.1813 O.co2       1 GSH      -0.5643
      5 O12         9.4509   33.1690   -8.4472 O.co2       1 GSH      -0.5643
      6 CB1         9.4013   35.5553   -5.5120 C.3         1 GSH       0.0193
      7 CG1         9.8341   35.3929   -4.0284 C.3         1 GSH       0.0441
      8 CD1         9.1914   36.3636   -3.1658 C.2         1 GSH       0.1785
      9 OE1         8.2805   35.9958   -2.4297 O.2         1 GSH      -0.3969
     10 N2          9.6327   37.6161   -3.1330 N.am        1 GSH      -0.2648
     11 CA2         9.1486   38.6620   -2.2720 C.3         1 GSH       0.1395
     12 C2          7.8277   39.0838   -2.7170 C.2         1 GSH       0.2039
     13 O2          7.7293   39.8150   -3.7016 O.2         1 GSH      -0.3944
     14 CB2        10.1417   39.8547   -2.1961 C.3         1 GSH       0.0311
     15 SG2        11.8141   39.3721   -1.6844 S.3         1 GSH      -0.1735
     16 N3          6.7266   38.6696   -2.0908 N.am        1 GSH      -0.2722
     17 CA3         5.3819   38.8432   -2.5494 C.3         1 GSH       0.0833
     18 C3          4.9621   40.2565   -2.6274 C.2         1 GSH       0.0570
     19 O31         5.6030   41.1267   -3.4479 O.co2       1 GSH      -0.5669
     20 O32         3.8878   40.7018   -1.9284 O.co2       1 GSH      -0.5669
     21 H1         11.9478   34.7355   -5.8830 H           1 GSH       0.2010
     22 H2         11.4871   35.6601   -7.1930 H           1 GSH       0.2010
     23 H3         11.7732   34.0259   -7.3777 H           1 GSH       0.2010
     24 H4          9.9385   33.5012   -5.9276 H           1 GSH       0.1026
     25 H5          8.3060   35.5053   -5.5504 H           1 GSH       0.0363
     26 H6          9.7027   36.5453   -5.8771 H           1 GSH       0.0363
     27 H7         10.9162   35.4985   -3.9373 H           1 GSH       0.0505
     28 H8          9.5796   34.3816   -3.7004 H           1 GSH       0.0505
     29 H9         10.3947   37.8243   -3.6990 H           1 GSH       0.1883
     30 H10         9.0817   38.2579   -1.2493 H           1 GSH       0.0808
     31 H11         9.7751   40.5671   -1.4532 H           1 GSH       0.0422
     32 H12        10.2206   40.3877   -3.1496 H           1 GSH       0.0422
     33 H13        12.1891   38.9500   -2.9257 H           1 GSH       0.1019
     34 H14         6.8465   38.1140   -1.2977 H           1 GSH       0.1873
     35 H15         4.7224   38.3160   -1.8559 H           1 GSH       0.0689
     36 H16         5.2626   38.3775   -3.5285 H           1 GSH       0.0689
@<TRIPOS>BOND
     1     1     2   1
     2     2     3   1
     3     2     6   1
     4     3     4  ar
     5     3     5  ar
     6     6     7   1
     7     7     8   1
     8     8     9   2
     9     8    10  am
    10    10    11   1
    11    11    12   1
    12    11    14   1
    13    12    13   2
    14    12    16  am
    15    14    15   1
    16    16    17   1
    17    17    18   1
    18    18    19  ar
    19    18    20  ar
    20     1    21   1
    21     1    22   1
    22     1    23   1
    23     2    24   1
    24     6    25   1
    25     6    26   1
    26     7    27   1
    27     7    28   1
    28    10    29   1
    29    11    30   1
    30    14    31   1
    31    14    32   1
    32    15    33   1
    33    16    34   1
    34    17    35   1
    35    17    36   1
@<TRIPOS>SUBSTRUCTURE
     1  GSH      2

