@<TRIPOS>MOLECULE
1lbk_ligand_032
    36    35
SMALL
GAST_HUCK
****
This file was generated by PARSER (from files_GN.cpp)

@<TRIPOS>ATOM
      1 N1          3.4874   33.5842    1.0465 N.4         1 GSH       0.2328
      2 CA1         2.5559   33.9716   -0.0332 C.3         1 GSH       0.0304
      3 C1          2.7572   33.0483   -1.1719 C.2         1 GSH       0.0846
      4 O11         1.7293   32.3210   -1.6680 O.co2       1 GSH      -0.5643
      5 O12         3.9737   32.9231   -1.7642 O.co2       1 GSH      -0.5643
      6 CB1         2.7655   35.4535   -0.4517 C.3         1 GSH       0.0193
      7 CG1         1.7409   36.4371    0.1872 C.3         1 GSH       0.0441
      8 CD1         2.1343   37.8307    0.0582 C.2         1 GSH       0.1785
      9 OE1         2.3691   38.4504    1.0864 O.2         1 GSH      -0.3969
     10 N2          2.2821   38.3818   -1.1411 N.am        1 GSH      -0.2648
     11 CA2         2.8628   39.6371   -1.5383 C.3         1 GSH       0.1395
     12 C2          4.0241   39.3488   -2.3750 C.2         1 GSH       0.2039
     13 O2          4.0745   39.8240   -3.5072 O.2         1 GSH      -0.3944
     14 CB2         3.1960   40.7128   -0.4578 C.3         1 GSH       0.0311
     15 SG2         1.7286   41.2400    0.4548 S.3         1 GSH      -0.1735
     16 N3          4.9980   38.5606   -1.9318 N.am        1 GSH      -0.2722
     17 CA3         6.1113   38.0544   -2.6742 C.3         1 GSH       0.0833
     18 C3          7.2034   39.0337   -2.8151 C.2         1 GSH       0.0570
     19 O31         7.1072   40.0557   -3.6971 O.co2       1 GSH      -0.5669
     20 O32         8.3711   38.8809   -2.1517 O.co2       1 GSH      -0.5669
     21 H1          3.3802   34.1894    1.8626 H           1 GSH       0.2010
     22 H2          4.4445   33.6663    0.6993 H           1 GSH       0.2010
     23 H3          3.3119   32.6207    1.3271 H           1 GSH       0.2010
     24 H4          1.5305   33.8425    0.3324 H           1 GSH       0.1026
     25 H5          2.6619   35.5379   -1.5450 H           1 GSH       0.0363
     26 H6          3.7864   35.7556   -0.1976 H           1 GSH       0.0363
     27 H7          1.6211   36.1780    1.2477 H           1 GSH       0.0505
     28 H8          0.7700   36.3066   -0.2894 H           1 GSH       0.0505
     29 H9          2.0710   37.7993   -1.8858 H           1 GSH       0.1883
     30 H10         2.0896   40.1009   -2.1618 H           1 GSH       0.0808
     31 H11         3.6127   41.6014   -0.9537 H           1 GSH       0.0422
     32 H12         3.9505   40.3516    0.2461 H           1 GSH       0.0422
     33 H13         2.2855   42.4309    0.8227 H           1 GSH       0.1019
     34 H14         4.8925   38.2062   -1.0330 H           1 GSH       0.1873
     35 H15         5.8000   37.7064   -3.6597 H           1 GSH       0.0689
     36 H16         6.4984   37.1935   -2.1251 H           1 GSH       0.0689
@<TRIPOS>BOND
     1     1     2   1
     2     2     3   1
     3     2     6   1
     4     3     4  ar
     5     3     5  ar
     6     6     7   1
     7     7     8   1
     8     8     9   2
     9     8    10  am
    10    10    11   1
    11    11    12   1
    12    11    14   1
    13    12    13   2
    14    12    16  am
    15    14    15   1
    16    16    17   1
    17    17    18   1
    18    18    19  ar
    19    18    20  ar
    20     1    21   1
    21     1    22   1
    22     1    23   1
    23     2    24   1
    24     6    25   1
    25     6    26   1
    26     7    27   1
    27     7    28   1
    28    10    29   1
    29    11    30   1
    30    14    31   1
    31    14    32   1
    32    15    33   1
    33    16    34   1
    34    17    35   1
    35    17    36   1
@<TRIPOS>SUBSTRUCTURE
     1  GSH      2

