@<TRIPOS>MOLECULE
1lbk_ligand_022
    36    35
SMALL
GAST_HUCK
****
This file was generated by PARSER (from files_GN.cpp)

@<TRIPOS>ATOM
      1 N1          4.5161   31.4160   -1.8220 N.4         1 GSH       0.2328
      2 CA1         4.6472   32.8151   -1.3726 C.3         1 GSH       0.0304
      3 C1          5.4111   32.8352   -0.1102 C.2         1 GSH       0.0846
      4 O11         6.6621   33.3511   -0.0620 O.co2       1 GSH      -0.5643
      5 O12         4.8492   32.3908    1.0427 O.co2       1 GSH      -0.5643
      6 CB1         3.2463   33.4857   -1.2386 C.3         1 GSH       0.0193
      7 CG1         3.2621   35.0155   -0.9450 C.3         1 GSH       0.0441
      8 CD1         3.7138   35.8865   -2.0224 C.2         1 GSH       0.1785
      9 OE1         3.8503   35.4481   -3.1588 O.2         1 GSH      -0.3969
     10 N2          3.9269   37.1722   -1.7664 N.am        1 GSH      -0.2648
     11 CA2         4.3596   38.1875   -2.6886 C.3         1 GSH       0.1395
     12 C2          5.8017   38.1423   -2.8985 C.2         1 GSH       0.2039
     13 O2          6.2304   38.0770   -4.0420 O.2         1 GSH      -0.3944
     14 CB2         3.8740   39.5724   -2.1592 C.3         1 GSH       0.0311
     15 SG2         4.7262   40.9935   -2.8943 S.3         1 GSH      -0.1735
     16 N3          6.6366   38.1859   -1.8654 N.am        1 GSH      -0.2722
     17 CA3         8.0640   38.2879   -1.9351 C.3         1 GSH       0.0833
     18 C3          8.4926   39.4586   -2.7281 C.2         1 GSH       0.0570
     19 O31         7.7063   39.9485   -3.7099 O.co2       1 GSH      -0.5669
     20 O32         9.7652   39.9301   -2.6222 O.co2       1 GSH      -0.5669
     21 H1          4.0292   31.3856   -2.7194 H           1 GSH       0.2010
     22 H2          3.9874   30.8751   -1.1300 H           1 GSH       0.2010
     23 H3          5.4473   31.0030   -1.9317 H           1 GSH       0.2010
     24 H4          5.2203   33.3359   -2.1444 H           1 GSH       0.1026
     25 H5          2.6976   32.9910   -0.4279 H           1 GSH       0.0363
     26 H6          2.6802   33.3104   -2.1562 H           1 GSH       0.0363
     27 H7          3.8860   35.1895   -0.0599 H           1 GSH       0.0505
     28 H8          2.2436   35.3245   -0.6792 H           1 GSH       0.0505
     29 H9          3.8018   37.4578   -0.8479 H           1 GSH       0.1883
     30 H10         3.8435   38.0200   -3.6393 H           1 GSH       0.0808
     31 H11         3.9748   39.6202   -1.0667 H           1 GSH       0.0422
     32 H12         2.8134   39.6882   -2.3854 H           1 GSH       0.0422
     33 H13         5.7908   40.9097   -2.0384 H           1 GSH       0.1019
     34 H14         6.2443   38.1417   -0.9766 H           1 GSH       0.1873
     35 H15         8.4868   37.3730   -2.3700 H           1 GSH       0.0689
     36 H16         8.4491   38.3818   -0.9152 H           1 GSH       0.0689
@<TRIPOS>BOND
     1     1     2   1
     2     2     3   1
     3     2     6   1
     4     3     4  ar
     5     3     5  ar
     6     6     7   1
     7     7     8   1
     8     8     9   2
     9     8    10  am
    10    10    11   1
    11    11    12   1
    12    11    14   1
    13    12    13   2
    14    12    16  am
    15    14    15   1
    16    16    17   1
    17    17    18   1
    18    18    19  ar
    19    18    20  ar
    20     1    21   1
    21     1    22   1
    22     1    23   1
    23     2    24   1
    24     6    25   1
    25     6    26   1
    26     7    27   1
    27     7    28   1
    28    10    29   1
    29    11    30   1
    30    14    31   1
    31    14    32   1
    32    15    33   1
    33    16    34   1
    34    17    35   1
    35    17    36   1
@<TRIPOS>SUBSTRUCTURE
     1  GSH      2

