@<TRIPOS>MOLECULE
1lbk_ligand_023
    36    35
SMALL
GAST_HUCK
****
This file was generated by PARSER (from files_GN.cpp)

@<TRIPOS>ATOM
      1 N1          8.3920   35.0796   -9.6375 N.4         1 GSH       0.2328
      2 CA1         8.2243   34.3333   -8.3751 C.3         1 GSH       0.0304
      3 C1          6.9562   34.6984   -7.7196 C.2         1 GSH       0.0846
      4 O11         6.6791   34.1705   -6.5099 O.co2       1 GSH      -0.5643
      5 O12         5.8932   35.0675   -8.4652 O.co2       1 GSH      -0.5643
      6 CB1         9.4854   34.5274   -7.4753 C.3         1 GSH       0.0193
      7 CG1         9.6771   35.9486   -6.8516 C.3         1 GSH       0.0441
      8 CD1         9.2131   36.1664   -5.4845 C.2         1 GSH       0.1785
      9 OE1         8.8611   35.2256   -4.7744 O.2         1 GSH      -0.3969
     10 N2          9.2601   37.3980   -5.0006 N.am        1 GSH      -0.2648
     11 CA2         8.9763   37.8364   -3.6576 C.3         1 GSH       0.1395
     12 C2          7.7724   38.6634   -3.6874 C.2         1 GSH       0.2039
     13 O2          7.7556   39.6636   -4.4022 O.2         1 GSH      -0.3944
     14 CB2        10.2356   38.5620   -3.1065 C.3         1 GSH       0.0311
     15 SG2        10.0803   39.0136   -1.3581 S.3         1 GSH      -0.1735
     16 N3          6.7195   38.3169   -2.9623 N.am        1 GSH      -0.2722
     17 CA3         5.4071   38.9017   -2.9829 C.3         1 GSH       0.0833
     18 C3          5.3336   40.3025   -2.5331 C.2         1 GSH       0.0570
     19 O31         4.6199   40.6229   -1.4377 O.co2       1 GSH      -0.5669
     20 O32         5.7279   41.2939   -3.3535 O.co2       1 GSH      -0.5669
     21 H1          9.2382   34.7518  -10.1116 H           1 GSH       0.2010
     22 H2          8.4727   36.0804   -9.4426 H           1 GSH       0.2010
     23 H3          7.5861   34.9186  -10.2481 H           1 GSH       0.2010
     24 H4          8.1627   33.2758   -8.6462 H           1 GSH       0.1026
     25 H5         10.3630   34.3092   -8.0906 H           1 GSH       0.0363
     26 H6          9.4831   33.7645   -6.6931 H           1 GSH       0.0363
     27 H7          9.1936   36.6889   -7.4951 H           1 GSH       0.0505
     28 H8         10.7461   36.1832   -6.8556 H           1 GSH       0.0505
     29 H9          9.5261   38.0957   -5.6270 H           1 GSH       0.1883
     30 H10         8.8075   36.9692   -3.0063 H           1 GSH       0.0808
     31 H11        10.4521   39.4661   -3.6871 H           1 GSH       0.0422
     32 H12        11.0978   37.8904   -3.1976 H           1 GSH       0.0422
     33 H13        11.4316   39.1780   -1.1932 H           1 GSH       0.1019
     34 H14         6.8172   37.5285   -2.3961 H           1 GSH       0.1873
     35 H15         4.7723   38.2844   -2.3333 H           1 GSH       0.0689
     36 H16         4.9932   38.8302   -3.9959 H           1 GSH       0.0689
@<TRIPOS>BOND
     1     1     2   1
     2     2     3   1
     3     2     6   1
     4     3     4  ar
     5     3     5  ar
     6     6     7   1
     7     7     8   1
     8     8     9   2
     9     8    10  am
    10    10    11   1
    11    11    12   1
    12    11    14   1
    13    12    13   2
    14    12    16  am
    15    14    15   1
    16    16    17   1
    17    17    18   1
    18    18    19  ar
    19    18    20  ar
    20     1    21   1
    21     1    22   1
    22     1    23   1
    23     2    24   1
    24     6    25   1
    25     6    26   1
    26     7    27   1
    27     7    28   1
    28    10    29   1
    29    11    30   1
    30    14    31   1
    31    14    32   1
    32    15    33   1
    33    16    34   1
    34    17    35   1
    35    17    36   1
@<TRIPOS>SUBSTRUCTURE
     1  GSH      2

