@<TRIPOS>MOLECULE
1lbk_ligand_034
    36    35
SMALL
GAST_HUCK
****
This file was generated by PARSER (from files_GN.cpp)

@<TRIPOS>ATOM
      1 N1          5.5957   37.8638   -2.9552 N.4         1 GSH       0.2328
      2 CA1         4.8766   39.1380   -2.7565 C.3         1 GSH       0.0304
      3 C1          5.6923   40.2725   -3.2336 C.2         1 GSH       0.0846
      4 O11         5.0993   41.4694   -3.4485 O.co2       1 GSH      -0.5643
      5 O12         6.9883   40.1334   -3.5958 O.co2       1 GSH      -0.5643
      6 CB1         4.4882   39.2595   -1.2565 C.3         1 GSH       0.0193
      7 CG1         3.8912   40.6047   -0.7349 C.3         1 GSH       0.0441
      8 CD1         2.4955   40.8971   -1.0067 C.2         1 GSH       0.1785
      9 OE1         1.9624   40.4752   -2.0317 O.2         1 GSH      -0.3969
     10 N2          1.8143   41.6471   -0.1450 N.am        1 GSH      -0.2648
     11 CA2         0.4579   42.1199   -0.2005 C.3         1 GSH       0.1395
     12 C2         -0.5505   41.0651   -0.2979 C.2         1 GSH       0.2039
     13 O2         -0.2183   39.8901   -0.4526 O.2         1 GSH      -0.3944
     14 CB2         0.2732   43.2988   -1.2126 C.3         1 GSH       0.0311
     15 SG2        -0.3923   42.8802   -2.8436 S.3         1 GSH      -0.1735
     16 N3         -1.8347   41.3815   -0.2046 N.am        1 GSH      -0.2722
     17 CA3        -2.9266   40.4606   -0.2508 C.3         1 GSH       0.0833
     18 C3         -4.2073   41.1787   -0.1563 C.2         1 GSH       0.0570
     19 O31        -5.1294   41.0707   -1.1376 O.co2       1 GSH      -0.5669
     20 O32        -4.5195   41.8897    0.9520 O.co2       1 GSH      -0.5669
     21 H1          4.9655   37.0806   -2.7626 H           1 GSH       0.2010
     22 H2          6.3969   37.8163   -2.3196 H           1 GSH       0.2010
     23 H3          5.9316   37.7959   -3.9172 H           1 GSH       0.2010
     24 H4          3.9754   39.0855   -3.3725 H           1 GSH       0.1026
     25 H5          5.3944   39.0690   -0.6735 H           1 GSH       0.0363
     26 H6          3.7769   38.4626   -1.0242 H           1 GSH       0.0363
     27 H7          4.4890   41.4353   -1.1099 H           1 GSH       0.0505
     28 H8          4.0348   40.5884    0.3509 H           1 GSH       0.0505
     29 H9          2.3168   41.9216    0.6412 H           1 GSH       0.1883
     30 H10         0.3081   42.5606    0.7902 H           1 GSH       0.0808
     31 H11         1.2340   43.7903   -1.3722 H           1 GSH       0.0422
     32 H12        -0.3925   44.0475   -0.7774 H           1 GSH       0.0422
     33 H13        -1.6544   43.2943   -2.5362 H           1 GSH       0.1019
     34 H14        -2.0535   42.3229   -0.0972 H           1 GSH       0.1873
     35 H15        -2.8565   39.7613    0.5869 H           1 GSH       0.0689
     36 H16        -2.8895   39.8940   -1.1863 H           1 GSH       0.0689
@<TRIPOS>BOND
     1     1     2   1
     2     2     3   1
     3     2     6   1
     4     3     4  ar
     5     3     5  ar
     6     6     7   1
     7     7     8   1
     8     8     9   2
     9     8    10  am
    10    10    11   1
    11    11    12   1
    12    11    14   1
    13    12    13   2
    14    12    16  am
    15    14    15   1
    16    16    17   1
    17    17    18   1
    18    18    19  ar
    19    18    20  ar
    20     1    21   1
    21     1    22   1
    22     1    23   1
    23     2    24   1
    24     6    25   1
    25     6    26   1
    26     7    27   1
    27     7    28   1
    28    10    29   1
    29    11    30   1
    30    14    31   1
    31    14    32   1
    32    15    33   1
    33    16    34   1
    34    17    35   1
    35    17    36   1
@<TRIPOS>SUBSTRUCTURE
     1  GSH      2

