@<TRIPOS>MOLECULE
1lol_ligand_051
    35    37
SMALL
GAST_HUCK
****
This file was generated by PARSER (from files_GN.cpp)

@<TRIPOS>ATOM
      1 P           4.5097   36.3793   44.1366 P.3         1 XMP       0.2008
      2 O1P         3.3523   35.8713   43.4554 O.co2       1 XMP      -0.5537
      3 O2P         4.5296   35.7490   45.4286 O.co2       1 XMP      -0.5537
      4 O5'         4.3740   37.9385   44.1547 O.3         1 XMP      -0.2734
      5 O3P         5.6660   35.9924   43.3773 O.co2       1 XMP      -0.5537
      6 C5'         4.7163   38.6344   45.3745 C.3         1 XMP       0.1072
      7 C4'         3.5350   38.8998   46.3669 C.3         1 XMP       0.1182
      8 O4'         3.2910   40.3097   46.4777 O.3         1 XMP      -0.3363
      9 C1'         1.9892   40.5034   47.0543 C.3         1 XMP       0.2010
     10 N9          1.4849   41.8271   46.7799 N.pl3       1 XMP      -0.1896
     11 C4          0.1976   42.2273   46.7719 C.2         1 XMP       0.2049
     12 N3         -0.9814   41.5581   46.9659 N.am        1 XMP      -0.1835
     13 N1         -2.1712   43.4815   46.4779 N.am        1 XMP      -0.1870
     14 C2         -2.1401   42.1910   46.8168 C.2         1 XMP       0.3214
     15 O2         -3.1880   41.5773   46.9656 O.2         1 XMP      -0.3846
     16 C6         -1.0571   44.1940   46.2736 C.2         1 XMP       0.1997
     17 O6         -1.1343   45.3525   45.9064 O.2         1 XMP      -0.4080
     18 C5          0.1734   43.5734   46.4235 C.2         1 XMP       0.1084
     19 N7          1.4328   43.9969   46.2581 N.2         1 XMP      -0.3331
     20 C8          2.2188   42.9277   46.4854 C.2         1 XMP       0.0923
     21 C2'         1.1360   39.3491   46.4751 C.3         1 XMP       0.1387
     22 O2'         0.1874   38.8732   47.4317 O.3         1 XMP      -0.3836
     23 C3'         2.1538   38.2819   46.0281 C.3         1 XMP       0.1149
     24 O3'         1.9758   37.0110   46.6579 O.3         1 XMP      -0.3864
     25 H1          5.1036   39.5985   45.0398 H           1 XMP       0.0639
     26 H2          5.5499   38.1612   45.9123 H           1 XMP       0.0639
     27 H3          3.8466   38.5595   47.3620 H           1 XMP       0.0650
     28 H4          2.0681   40.3874   48.1409 H           1 XMP       0.0998
     29 H5         -0.9728   40.6108   47.1402 H           1 XMP       0.2360
     30 H6         -3.0325   43.9150   46.3723 H           1 XMP       0.2254
     31 H7          3.2394   42.9627   46.4268 H           1 XMP       0.1125
     32 H8          0.5836   39.7077   45.6008 H           1 XMP       0.0676
     33 H9         -0.4137   38.2844   46.9277 H           1 XMP       0.2101
     34 H10         2.0211   38.1436   44.9539 H           1 XMP       0.0648
     35 H11         2.0379   37.1779   47.6227 H           1 XMP       0.2100
@<TRIPOS>BOND
     1     1     2  ar
     2     1     3  ar
     3     1     4   1
     4     1     5  ar
     5     4     6   1
     6     6     7   1
     7     7     8   1
     8     7    23   1
     9     8     9   1
    10     9    10   1
    11     9    21   1
    12    10    11   1
    13    10    20   1
    14    11    12  am
    15    11    18   2
    16    12    14  am
    17    14    13  am
    18    13    16  am
    19    14    15   2
    20    16    17   2
    21    16    18   1
    22    18    19   1
    23    19    20   2
    24    21    22   1
    25    21    23   1
    26    23    24   1
    27     6    25   1
    28     6    26   1
    29     7    27   1
    30     9    28   1
    31    12    29   1
    32    13    30   1
    33    20    31   1
    34    21    32   1
    35    22    33   1
    36    23    34   1
    37    24    35   1
@<TRIPOS>SUBSTRUCTURE
     1  XMP      6

