@<TRIPOS>MOLECULE
1lol_ligand_007
    35    37
SMALL
GAST_HUCK
****
This file was generated by PARSER (from files_GN.cpp)

@<TRIPOS>ATOM
      1 P           4.6227   35.6133   44.0441 P.3         1 XMP       0.2008
      2 O1P         5.5373   36.1913   43.0909 O.co2       1 XMP      -0.5537
      3 O2P         3.2924   35.7165   43.5015 O.co2       1 XMP      -0.5537
      4 O5'         4.6037   36.2182   45.4775 O.3         1 XMP      -0.2734
      5 O3P         4.9309   34.2069   44.0957 O.co2       1 XMP      -0.5537
      6 C5'         5.2065   37.5187   45.6630 C.3         1 XMP       0.1072
      7 C4'         4.5422   38.3624   46.7874 C.3         1 XMP       0.1182
      8 O4'         4.2077   39.6713   46.3032 O.3         1 XMP      -0.3363
      9 C1'         3.0897   40.1881   47.0518 C.3         1 XMP       0.2010
     10 N9          2.0229   40.6246   46.1913 N.pl3       1 XMP      -0.1896
     11 C4          1.1187   41.5722   46.4868 C.2         1 XMP       0.2049
     12 N3          0.9495   42.3781   47.5789 N.am        1 XMP      -0.1835
     13 N1         -0.8929   43.3643   46.5632 N.am        1 XMP      -0.1870
     14 C2         -0.0500   43.2585   47.6000 C.2         1 XMP       0.3214
     15 O2         -0.1972   43.9756   48.5786 O.2         1 XMP      -0.3846
     16 C6         -0.7877   42.5895   45.4842 C.2         1 XMP       0.1997
     17 O6         -1.5878   42.7108   44.5712 O.2         1 XMP      -0.4080
     18 C5          0.2338   41.6580   45.4141 C.2         1 XMP       0.1084
     19 N7          0.5893   40.7540   44.4939 N.2         1 XMP      -0.3331
     20 C8          1.6742   40.1260   44.9835 C.2         1 XMP       0.0923
     21 C2'         2.6118   39.0687   48.0061 C.3         1 XMP       0.1387
     22 O2'         3.1210   39.2832   49.3208 O.3         1 XMP      -0.3836
     23 C3'         3.2236   37.8204   47.3664 C.3         1 XMP       0.1149
     24 O3'         3.4444   36.7724   48.3052 O.3         1 XMP      -0.3864
     25 H1          5.1904   38.1251   44.7563 H           1 XMP       0.0639
     26 H2          6.2577   37.3479   45.9071 H           1 XMP       0.0639
     27 H3          5.2583   38.4875   47.5993 H           1 XMP       0.0650
     28 H4          3.4602   41.0478   47.6227 H           1 XMP       0.0998
     29 H5          1.5545   42.3036   48.3358 H           1 XMP       0.2360
     30 H6         -1.6036   44.0310   46.5930 H           1 XMP       0.2254
     31 H7          2.1579   39.3667   44.4972 H           1 XMP       0.1125
     32 H8          1.5229   38.9725   48.0589 H           1 XMP       0.0676
     33 H9          2.6708   40.0928   49.6357 H           1 XMP       0.2101
     34 H10         2.5556   37.4679   46.5696 H           1 XMP       0.0648
     35 H11         2.5985   36.6540   48.7779 H           1 XMP       0.2100
@<TRIPOS>BOND
     1     1     2  ar
     2     1     3  ar
     3     1     4   1
     4     1     5  ar
     5     4     6   1
     6     6     7   1
     7     7     8   1
     8     7    23   1
     9     8     9   1
    10     9    10   1
    11     9    21   1
    12    10    11   1
    13    10    20   1
    14    11    12  am
    15    11    18   2
    16    12    14  am
    17    14    13  am
    18    13    16  am
    19    14    15   2
    20    16    17   2
    21    16    18   1
    22    18    19   1
    23    19    20   2
    24    21    22   1
    25    21    23   1
    26    23    24   1
    27     6    25   1
    28     6    26   1
    29     7    27   1
    30     9    28   1
    31    12    29   1
    32    13    30   1
    33    20    31   1
    34    21    32   1
    35    22    33   1
    36    23    34   1
    37    24    35   1
@<TRIPOS>SUBSTRUCTURE
     1  XMP      6

