@<TRIPOS>MOLECULE
1lol_ligand_016
    35    37
SMALL
GAST_HUCK
****
This file was generated by PARSER (from files_GN.cpp)

@<TRIPOS>ATOM
      1 P           4.8474   35.5293   43.9754 P.3         1 XMP       0.2008
      2 O1P         3.6663   35.8507   43.2151 O.co2       1 XMP      -0.5537
      3 O2P         5.0303   34.1012   43.8803 O.co2       1 XMP      -0.5537
      4 O5'         4.6132   35.8995   45.4753 O.3         1 XMP      -0.2734
      5 O3P         5.9933   36.1681   43.3702 O.co2       1 XMP      -0.5537
      6 C5'         4.7232   37.3038   45.7938 C.3         1 XMP       0.1072
      7 C4'         3.9772   37.6058   47.1235 C.3         1 XMP       0.1182
      8 O4'         4.1106   38.9914   47.4596 O.3         1 XMP      -0.3363
      9 C1'         3.0311   39.7283   46.8411 C.3         1 XMP       0.2010
     10 N9          3.5360   40.5976   45.8005 N.pl3       1 XMP      -0.1896
     11 C4          2.9506   40.9873   44.6510 C.2         1 XMP       0.2049
     12 N3          1.7317   40.7312   44.0857 N.am        1 XMP      -0.1835
     13 N1          2.3093   41.9832   42.2295 N.am        1 XMP      -0.1870
     14 C2          1.4348   41.2042   42.8771 C.2         1 XMP       0.3214
     15 O2          0.3495   40.9417   42.3831 O.2         1 XMP      -0.3846
     16 C6          3.4937   42.3168   42.7447 C.2         1 XMP       0.1997
     17 O6          4.2405   43.0531   42.1166 O.2         1 XMP      -0.4080
     18 C5          3.8546   41.8148   43.9814 C.2         1 XMP       0.1084
     19 N7          4.9511   41.9566   44.7299 N.2         1 XMP      -0.3331
     20 C8          4.7392   41.2215   45.8336 C.2         1 XMP       0.0923
     21 C2'         1.9621   38.6784   46.4205 C.3         1 XMP       0.1387
     22 O2'         0.6393   39.0702   46.8028 O.3         1 XMP      -0.3836
     23 C3'         2.4486   37.3842   47.0851 C.3         1 XMP       0.1149
     24 O3'         1.9050   37.2168   48.4006 O.3         1 XMP      -0.3864
     25 H1          4.3128   37.9526   45.0125 H           1 XMP       0.0639
     26 H2          5.7767   37.5578   45.9208 H           1 XMP       0.0639
     27 H3          4.4220   37.0025   47.9200 H           1 XMP       0.0650
     28 H4          2.6209   40.3689   47.6289 H           1 XMP       0.0998
     29 H5          1.0776   40.2008   44.5604 H           1 XMP       0.2360
     30 H6          2.0566   42.3331   41.3626 H           1 XMP       0.2254
     31 H7          5.4245   41.1504   46.5840 H           1 XMP       0.1125
     32 H8          1.9813   38.4950   45.3465 H           1 XMP       0.0676
     33 H9          0.0316   38.3781   46.4401 H           1 XMP       0.2101
     34 H10         2.1818   36.5006   46.4947 H           1 XMP       0.0648
     35 H11         2.0455   38.0791   48.8483 H           1 XMP       0.2100
@<TRIPOS>BOND
     1     1     2  ar
     2     1     3  ar
     3     1     4   1
     4     1     5  ar
     5     4     6   1
     6     6     7   1
     7     7     8   1
     8     7    23   1
     9     8     9   1
    10     9    10   1
    11     9    21   1
    12    10    11   1
    13    10    20   1
    14    11    12  am
    15    11    18   2
    16    12    14  am
    17    14    13  am
    18    13    16  am
    19    14    15   2
    20    16    17   2
    21    16    18   1
    22    18    19   1
    23    19    20   2
    24    21    22   1
    25    21    23   1
    26    23    24   1
    27     6    25   1
    28     6    26   1
    29     7    27   1
    30     9    28   1
    31    12    29   1
    32    13    30   1
    33    20    31   1
    34    21    32   1
    35    22    33   1
    36    23    34   1
    37    24    35   1
@<TRIPOS>SUBSTRUCTURE
     1  XMP      6

