@<TRIPOS>MOLECULE
1lol_ligand_070
    35    37
SMALL
GAST_HUCK
****
This file was generated by PARSER (from files_GN.cpp)

@<TRIPOS>ATOM
      1 P           4.5687   36.4779   44.1625 P.3         1 XMP       0.2008
      2 O1P         4.4349   35.4609   45.1816 O.co2       1 XMP      -0.5537
      3 O2P         5.6400   37.3843   44.5148 O.co2       1 XMP      -0.5537
      4 O5'         3.2439   37.2507   43.9460 O.3         1 XMP      -0.2734
      5 O3P         4.9336   35.8216   42.9280 O.co2       1 XMP      -0.5537
      6 C5'         2.5379   37.7515   45.1055 C.3         1 XMP       0.1072
      7 C4'         2.2748   39.2696   44.9642 C.3         1 XMP       0.1182
      8 O4'         1.3817   39.7248   45.9862 O.3         1 XMP      -0.3363
      9 C1'         1.7169   41.0750   46.3750 C.3         1 XMP       0.2010
     10 N9          1.8640   41.1788   47.8075 N.pl3       1 XMP      -0.1896
     11 C4          2.3378   42.2320   48.5070 C.2         1 XMP       0.2049
     12 N3          2.8499   43.4478   48.1325 N.am        1 XMP      -0.1835
     13 N1          3.3987   43.9124   50.3419 N.am        1 XMP      -0.1870
     14 C2          3.3885   44.2545   49.0482 C.2         1 XMP       0.3214
     15 O2          3.9006   45.3078   48.6987 O.2         1 XMP      -0.3846
     16 C6          2.8543   42.7715   50.7788 C.2         1 XMP       0.1997
     17 O6          2.8887   42.5004   51.9688 O.2         1 XMP      -0.4080
     18 C5          2.3224   41.8846   49.8573 C.2         1 XMP       0.1084
     19 N7          1.8124   40.6521   49.9762 N.2         1 XMP      -0.3331
     20 C8          1.5306   40.2421   48.7298 C.2         1 XMP       0.0923
     21 C2'         2.9761   41.4737   45.5552 C.3         1 XMP       0.1387
     22 O2'         2.6199   42.2814   44.4295 O.3         1 XMP      -0.3836
     23 C3'         3.5462   40.1272   45.1007 C.3         1 XMP       0.1149
     24 O3'         4.2994   40.1967   43.8919 O.3         1 XMP      -0.3864
     25 H1          3.0414   37.5654   46.0635 H           1 XMP       0.0639
     26 H2          1.5797   37.2288   45.1475 H           1 XMP       0.0639
     27 H3          1.7979   39.4596   43.9954 H           1 XMP       0.0650
     28 H4          0.8754   41.7187   46.0950 H           1 XMP       0.0998
     29 H5          2.8611   43.7040   47.1957 H           1 XMP       0.2360
     30 H6          3.8336   44.4986   50.9814 H           1 XMP       0.2254
     31 H7          1.1189   39.3284   48.5253 H           1 XMP       0.1125
     32 H8          3.7270   42.0042   46.1408 H           1 XMP       0.0676
     33 H9          2.2485   43.1036   44.8110 H           1 XMP       0.2101
     34 H10         4.1945   39.7343   45.8904 H           1 XMP       0.0648
     35 H11         3.6780   40.5710   43.2288 H           1 XMP       0.2100
@<TRIPOS>BOND
     1     1     2  ar
     2     1     3  ar
     3     1     4   1
     4     1     5  ar
     5     4     6   1
     6     6     7   1
     7     7     8   1
     8     7    23   1
     9     8     9   1
    10     9    10   1
    11     9    21   1
    12    10    11   1
    13    10    20   1
    14    11    12  am
    15    11    18   2
    16    12    14  am
    17    14    13  am
    18    13    16  am
    19    14    15   2
    20    16    17   2
    21    16    18   1
    22    18    19   1
    23    19    20   2
    24    21    22   1
    25    21    23   1
    26    23    24   1
    27     6    25   1
    28     6    26   1
    29     7    27   1
    30     9    28   1
    31    12    29   1
    32    13    30   1
    33    20    31   1
    34    21    32   1
    35    22    33   1
    36    23    34   1
    37    24    35   1
@<TRIPOS>SUBSTRUCTURE
     1  XMP      6

