@<TRIPOS>MOLECULE
1lol_ligand_042
    35    37
SMALL
GAST_HUCK
****
This file was generated by PARSER (from files_GN.cpp)

@<TRIPOS>ATOM
      1 P           5.3440   40.8177   43.5325 P.3         1 XMP       0.2008
      2 O1P         5.3331   40.8548   42.0917 O.co2       1 XMP      -0.5537
      3 O2P         5.2929   39.4475   43.9786 O.co2       1 XMP      -0.5537
      4 O5'         4.2149   41.7207   44.1173 O.3         1 XMP      -0.2734
      5 O3P         6.6059   41.3652   43.9617 O.co2       1 XMP      -0.5537
      6 C5'         2.8525   41.2488   44.0360 C.3         1 XMP       0.1072
      7 C4'         2.4763   40.3433   45.2381 C.3         1 XMP       0.1182
      8 O4'         2.7194   41.0618   46.4603 O.3         1 XMP      -0.3363
      9 C1'         1.7826   40.5736   47.4259 C.3         1 XMP       0.2010
     10 N9          1.6615   41.4666   48.5456 N.pl3       1 XMP      -0.1896
     11 C4          1.3342   42.7723   48.5230 C.2         1 XMP       0.2049
     12 N3          1.0305   43.6355   47.5036 N.am        1 XMP      -0.1835
     13 N1          0.7292   45.3489   49.0439 N.am        1 XMP      -0.1870
     14 C2          0.7271   44.9054   47.7822 C.2         1 XMP       0.3214
     15 O2          0.4558   45.6748   46.8748 O.2         1 XMP      -0.3846
     16 C6          1.0251   44.5578   50.0789 C.2         1 XMP       0.1997
     17 O6          1.0161   45.0086   51.2135 O.2         1 XMP      -0.4080
     18 C5          1.3369   43.2283   49.8399 C.2         1 XMP       0.1084
     19 N7          1.6692   42.2112   50.6453 N.2         1 XMP      -0.3331
     20 C8          1.8667   41.1479   49.8438 C.2         1 XMP       0.0923
     21 C2'         0.4813   40.3931   46.6237 C.3         1 XMP       0.1387
     22 O2'        -0.4168   39.5146   47.2954 O.3         1 XMP      -0.3836
     23 C3'         0.9892   39.8919   45.2591 C.3         1 XMP       0.1149
     24 O3'         0.8909   38.4707   45.1307 O.3         1 XMP      -0.3864
     25 H1          2.6304   40.7396   43.0921 H           1 XMP       0.0639
     26 H2          2.2197   42.1385   44.0712 H           1 XMP       0.0639
     27 H3          3.1253   39.4626   45.2328 H           1 XMP       0.0650
     28 H4          2.1267   39.5895   47.7708 H           1 XMP       0.0998
     29 H5          1.0318   43.3231   46.5842 H           1 XMP       0.2360
     30 H6          0.5127   46.2805   49.2135 H           1 XMP       0.2254
     31 H7          2.1336   40.2243   50.1904 H           1 XMP       0.1125
     32 H8         -0.0190   41.3549   46.4860 H           1 XMP       0.0676
     33 H9         -1.0012   39.1463   46.6040 H           1 XMP       0.2101
     34 H10         0.4048   40.3470   44.4542 H           1 XMP       0.0648
     35 H11        -0.0691   38.2680   45.1554 H           1 XMP       0.2100
@<TRIPOS>BOND
     1     1     2  ar
     2     1     3  ar
     3     1     4   1
     4     1     5  ar
     5     4     6   1
     6     6     7   1
     7     7     8   1
     8     7    23   1
     9     8     9   1
    10     9    10   1
    11     9    21   1
    12    10    11   1
    13    10    20   1
    14    11    12  am
    15    11    18   2
    16    12    14  am
    17    14    13  am
    18    13    16  am
    19    14    15   2
    20    16    17   2
    21    16    18   1
    22    18    19   1
    23    19    20   2
    24    21    22   1
    25    21    23   1
    26    23    24   1
    27     6    25   1
    28     6    26   1
    29     7    27   1
    30     9    28   1
    31    12    29   1
    32    13    30   1
    33    20    31   1
    34    21    32   1
    35    22    33   1
    36    23    34   1
    37    24    35   1
@<TRIPOS>SUBSTRUCTURE
     1  XMP      6

