@<TRIPOS>MOLECULE
1lol_ligand_073
    35    37
SMALL
GAST_HUCK
****
This file was generated by PARSER (from files_GN.cpp)

@<TRIPOS>ATOM
      1 P           3.3861   36.7060   45.0092 P.3         1 XMP       0.2008
      2 O1P         3.8642   37.2222   46.2674 O.co2       1 XMP      -0.5537
      3 O2P         3.6213   37.6499   43.9419 O.co2       1 XMP      -0.5537
      4 O5'         1.9065   36.2343   45.0096 O.3         1 XMP      -0.2734
      5 O3P         4.1719   35.5364   44.7076 O.co2       1 XMP      -0.5537
      6 C5'         0.8966   37.0092   45.6792 C.3         1 XMP       0.1072
      7 C4'         0.5541   38.3943   45.0616 C.3         1 XMP       0.1182
      8 O4'         1.5695   39.3702   45.2929 O.3         1 XMP      -0.3363
      9 C1'         1.4134   40.4362   44.3331 C.3         1 XMP       0.2010
     10 N9          2.6994   40.9058   43.8753 N.pl3       1 XMP      -0.1896
     11 C4          3.9093   40.6282   44.4025 C.2         1 XMP       0.2049
     12 N3          4.3102   39.8830   45.4802 N.am        1 XMP      -0.1835
     13 N1          6.5289   40.3316   44.9748 N.am        1 XMP      -0.1870
     14 C2          5.6126   39.7244   45.7302 C.2         1 XMP       0.3214
     15 O2          5.9630   39.0188   46.6638 O.2         1 XMP      -0.3846
     16 C6          6.1979   41.1159   43.9467 C.2         1 XMP       0.1997
     17 O6          7.0686   41.6660   43.2908 O.2         1 XMP      -0.4080
     18 C5          4.8646   41.2798   43.6231 C.2         1 XMP       0.1084
     19 N7          4.2379   41.9891   42.6754 N.2         1 XMP      -0.3331
     20 C8          2.9237   41.7654   42.8554 C.2         1 XMP       0.0923
     21 C2'         0.4788   39.8879   43.2121 C.3         1 XMP       0.1387
     22 O2'        -0.7989   40.5204   43.2650 O.3         1 XMP      -0.3836
     23 C3'         0.3693   38.3931   43.5349 C.3         1 XMP       0.1149
     24 O3'        -0.8338   37.7636   43.1006 O.3         1 XMP      -0.3864
     25 H1          1.1288   37.1237   46.7401 H           1 XMP       0.0639
     26 H2         -0.0107   36.4065   45.6246 H           1 XMP       0.0639
     27 H3         -0.3571   38.7645   45.5475 H           1 XMP       0.0650
     28 H4          0.9289   41.2735   44.8453 H           1 XMP       0.0998
     29 H5          3.6593   39.4584   46.0531 H           1 XMP       0.2360
     30 H6          7.4669   40.2045   45.1868 H           1 XMP       0.2254
     31 H7          2.2067   42.1855   42.2608 H           1 XMP       0.1125
     32 H8          0.8825   40.0224   42.2090 H           1 XMP       0.0676
     33 H9         -1.2851   40.1865   42.4813 H           1 XMP       0.2101
     34 H10         1.1976   37.8768   43.0504 H           1 XMP       0.0648
     35 H11        -1.3697   37.6505   43.9115 H           1 XMP       0.2100
@<TRIPOS>BOND
     1     1     2  ar
     2     1     3  ar
     3     1     4   1
     4     1     5  ar
     5     4     6   1
     6     6     7   1
     7     7     8   1
     8     7    23   1
     9     8     9   1
    10     9    10   1
    11     9    21   1
    12    10    11   1
    13    10    20   1
    14    11    12  am
    15    11    18   2
    16    12    14  am
    17    14    13  am
    18    13    16  am
    19    14    15   2
    20    16    17   2
    21    16    18   1
    22    18    19   1
    23    19    20   2
    24    21    22   1
    25    21    23   1
    26    23    24   1
    27     6    25   1
    28     6    26   1
    29     7    27   1
    30     9    28   1
    31    12    29   1
    32    13    30   1
    33    20    31   1
    34    21    32   1
    35    22    33   1
    36    23    34   1
    37    24    35   1
@<TRIPOS>SUBSTRUCTURE
     1  XMP      6

