@<TRIPOS>MOLECULE
1lol_ligand_056
    35    37
SMALL
GAST_HUCK
****
This file was generated by PARSER (from files_GN.cpp)

@<TRIPOS>ATOM
      1 P           4.7783   35.4186   43.8696 P.3         1 XMP       0.2008
      2 O1P         3.7914   35.6970   42.8532 O.co2       1 XMP      -0.5537
      3 O2P         5.0071   33.9959   43.8831 O.co2       1 XMP      -0.5537
      4 O5'         4.3187   35.8974   45.2737 O.3         1 XMP      -0.2734
      5 O3P         6.0404   36.0036   43.4795 O.co2       1 XMP      -0.5537
      6 C5'         3.9353   37.2752   45.4224 C.3         1 XMP       0.1072
      7 C4'         4.8366   38.3191   44.7144 C.3         1 XMP       0.1182
      8 O4'         4.2444   39.6436   44.8690 O.3         1 XMP      -0.3363
      9 C1'         5.3350   40.5572   44.9594 C.3         1 XMP       0.2010
     10 N9          4.9067   41.8127   45.4984 N.pl3       1 XMP      -0.1896
     11 C4          5.2027   43.0249   45.0054 C.2         1 XMP       0.2049
     12 N3          5.9365   43.4255   43.9147 N.am        1 XMP      -0.1835
     13 N1          5.4629   45.6371   44.4190 N.am        1 XMP      -0.1870
     14 C2          6.0476   44.7225   43.6391 C.2         1 XMP       0.3214
     15 O2          6.6837   45.0824   42.6606 O.2         1 XMP      -0.3846
     16 C6          4.7548   45.3098   45.5031 C.2         1 XMP       0.1997
     17 O6          4.2453   46.1884   46.1886 O.2         1 XMP      -0.4080
     18 C5          4.5917   43.9757   45.8234 C.2         1 XMP       0.1084
     19 N7          3.9298   43.3322   46.7928 N.2         1 XMP      -0.3331
     20 C8          4.1295   42.0185   46.5777 C.2         1 XMP       0.0923
     21 C2'         6.3714   39.8335   45.8298 C.3         1 XMP       0.1387
     22 O2'         7.6740   40.3961   45.7556 O.3         1 XMP      -0.3836
     23 C3'         6.2768   38.3948   45.2835 C.3         1 XMP       0.1149
     24 O3'         7.2577   38.1579   44.2732 O.3         1 XMP      -0.3864
     25 H1          3.9693   37.4807   46.4950 H           1 XMP       0.0639
     26 H2          2.8810   37.4226   45.1219 H           1 XMP       0.0639
     27 H3          4.8625   38.1208   43.6516 H           1 XMP       0.0650
     28 H4          5.7494   40.6997   43.9542 H           1 XMP       0.0998
     29 H5          6.3595   42.7669   43.3445 H           1 XMP       0.2360
     30 H6          5.5560   46.5751   44.1888 H           1 XMP       0.2254
     31 H7          3.7329   41.2810   47.1626 H           1 XMP       0.1125
     32 H8          6.0484   39.8238   46.8722 H           1 XMP       0.0676
     33 H9          7.9593   40.5024   46.6903 H           1 XMP       0.2101
     34 H10         6.4521   37.6784   46.0942 H           1 XMP       0.0648
     35 H11         7.0899   38.8351   43.5768 H           1 XMP       0.2100
@<TRIPOS>BOND
     1     1     2  ar
     2     1     3  ar
     3     1     4   1
     4     1     5  ar
     5     4     6   1
     6     6     7   1
     7     7     8   1
     8     7    23   1
     9     8     9   1
    10     9    10   1
    11     9    21   1
    12    10    11   1
    13    10    20   1
    14    11    12  am
    15    11    18   2
    16    12    14  am
    17    14    13  am
    18    13    16  am
    19    14    15   2
    20    16    17   2
    21    16    18   1
    22    18    19   1
    23    19    20   2
    24    21    22   1
    25    21    23   1
    26    23    24   1
    27     6    25   1
    28     6    26   1
    29     7    27   1
    30     9    28   1
    31    12    29   1
    32    13    30   1
    33    20    31   1
    34    21    32   1
    35    22    33   1
    36    23    34   1
    37    24    35   1
@<TRIPOS>SUBSTRUCTURE
     1  XMP      6

