@<TRIPOS>MOLECULE
1lol_ligand_069
    35    37
SMALL
GAST_HUCK
****
This file was generated by PARSER (from files_GN.cpp)

@<TRIPOS>ATOM
      1 P           4.1444   37.3011   45.0512 P.3         1 XMP       0.2008
      2 O1P         3.5745   37.2783   43.7300 O.co2       1 XMP      -0.5537
      3 O2P         4.3257   35.9597   45.5297 O.co2       1 XMP      -0.5537
      4 O5'         3.1974   38.1173   45.9751 O.3         1 XMP      -0.2734
      5 O3P         5.4228   37.9669   44.9846 O.co2       1 XMP      -0.5537
      6 C5'         1.9768   37.4641   46.3764 C.3         1 XMP       0.1072
      7 C4'         0.7382   38.3287   46.0486 C.3         1 XMP       0.1182
      8 O4'         0.6960   39.5385   46.8205 O.3         1 XMP      -0.3363
      9 C1'        -0.3441   40.3320   46.2220 C.3         1 XMP       0.2010
     10 N9         -0.2215   41.7091   46.6044 N.pl3       1 XMP      -0.1896
     11 C4          0.7562   42.5697   46.2712 C.2         1 XMP       0.2049
     12 N3          1.8898   42.4363   45.5161 N.am        1 XMP      -0.1835
     13 N1          2.3690   44.6865   45.8372 N.am        1 XMP      -0.1870
     14 C2          2.6724   43.4964   45.3099 C.2         1 XMP       0.3214
     15 O2          3.6802   43.3789   44.6301 O.2         1 XMP      -0.3846
     16 C6          1.2820   44.8786   46.5945 C.2         1 XMP       0.1997
     17 O6          1.0381   45.9839   47.0500 O.2         1 XMP      -0.4080
     18 C5          0.4395   43.8020   46.8360 C.2         1 XMP       0.1084
     19 N7         -0.6998   43.6760   47.5314 N.2         1 XMP      -0.3331
     20 C8         -1.0910   42.3985   47.3789 C.2         1 XMP       0.0923
     21 C2'        -0.2662   40.0776   44.6951 C.3         1 XMP       0.1387
     22 O2'        -1.5612   39.8812   44.1338 O.3         1 XMP      -0.3836
     23 C3'         0.6253   38.8237   44.5820 C.3         1 XMP       0.1149
     24 O3'         0.1101   37.8394   43.6794 O.3         1 XMP      -0.3864
     25 H1          2.0213   37.3188   47.4569 H           1 XMP       0.0639
     26 H2          1.8006   36.4894   45.9172 H           1 XMP       0.0639
     27 H3         -0.1449   37.7236   46.2980 H           1 XMP       0.0650
     28 H4         -1.2998   39.9396   46.5957 H           1 XMP       0.0998
     29 H5          2.1186   41.5783   45.1273 H           1 XMP       0.2360
     30 H6          2.9513   45.4429   45.6626 H           1 XMP       0.2254
     31 H7         -1.9434   42.0158   47.7951 H           1 XMP       0.1125
     32 H8          0.2120   40.9023   44.1664 H           1 XMP       0.0676
     33 H9         -1.9111   40.7849   43.9764 H           1 XMP       0.2101
     34 H10         1.6102   39.1299   44.2114 H           1 XMP       0.0648
     35 H11         0.8928   37.4468   43.2525 H           1 XMP       0.2100
@<TRIPOS>BOND
     1     1     2  ar
     2     1     3  ar
     3     1     4   1
     4     1     5  ar
     5     4     6   1
     6     6     7   1
     7     7     8   1
     8     7    23   1
     9     8     9   1
    10     9    10   1
    11     9    21   1
    12    10    11   1
    13    10    20   1
    14    11    12  am
    15    11    18   2
    16    12    14  am
    17    14    13  am
    18    13    16  am
    19    14    15   2
    20    16    17   2
    21    16    18   1
    22    18    19   1
    23    19    20   2
    24    21    22   1
    25    21    23   1
    26    23    24   1
    27     6    25   1
    28     6    26   1
    29     7    27   1
    30     9    28   1
    31    12    29   1
    32    13    30   1
    33    20    31   1
    34    21    32   1
    35    22    33   1
    36    23    34   1
    37    24    35   1
@<TRIPOS>SUBSTRUCTURE
     1  XMP      6

