@<TRIPOS>MOLECULE
1lol_ligand_026
    35    37
SMALL
GAST_HUCK
****
This file was generated by PARSER (from files_GN.cpp)

@<TRIPOS>ATOM
      1 P           4.8126   35.4479   42.3199 P.3         1 XMP       0.2008
      2 O1P         4.3897   35.2948   40.9523 O.co2       1 XMP      -0.5537
      3 O2P         3.6086   35.4212   43.1096 O.co2       1 XMP      -0.5537
      4 O5'         5.4656   36.8575   42.4713 O.3         1 XMP      -0.2734
      5 O3P         5.5958   34.2931   42.6779 O.co2       1 XMP      -0.5537
      6 C5'         6.8452   36.9830   42.8789 C.3         1 XMP       0.1072
      7 C4'         7.0531   37.0706   44.4178 C.3         1 XMP       0.1182
      8 O4'         5.9927   37.8344   45.0123 O.3         1 XMP      -0.3363
      9 C1'         5.9416   37.4502   46.3931 C.3         1 XMP       0.2010
     10 N9          4.6949   37.8429   46.9898 N.pl3       1 XMP      -0.1896
     11 C4          3.4534   37.6685   46.5005 C.2         1 XMP       0.2049
     12 N3          2.9788   37.0519   45.3770 N.am        1 XMP      -0.1835
     13 N1          0.8154   37.6455   45.9661 N.am        1 XMP      -0.1870
     14 C2          1.6675   37.0373   45.1323 C.2         1 XMP       0.3214
     15 O2          1.2492   36.4696   44.1356 O.2         1 XMP      -0.3846
     16 C6          1.2132   38.2651   47.0818 C.2         1 XMP       0.1997
     17 O6          0.3990   38.8120   47.8110 O.2         1 XMP      -0.4080
     18 C5          2.5623   38.2751   47.3844 C.2         1 XMP       0.1084
     19 N7          3.2555   38.7914   48.4082 N.2         1 XMP      -0.3331
     20 C8          4.5487   38.5158   48.1520 C.2         1 XMP       0.0923
     21 C2'         6.1805   35.9268   46.3850 C.3         1 XMP       0.1387
     22 O2'         6.7267   35.4703   47.6232 O.3         1 XMP      -0.3836
     23 C3'         7.1206   35.7184   45.1815 C.3         1 XMP       0.1149
     24 O3'         8.4626   35.4039   45.5655 O.3         1 XMP      -0.3864
     25 H1          7.1745   37.9398   42.4641 H           1 XMP       0.0639
     26 H2          7.4986   36.2186   42.4454 H           1 XMP       0.0639
     27 H3          7.9849   37.6203   44.5928 H           1 XMP       0.0650
     28 H4          6.7723   37.9420   46.9225 H           1 XMP       0.0998
     29 H5          3.5948   36.6195   44.7642 H           1 XMP       0.2360
     30 H6         -0.1298   37.6314   45.7568 H           1 XMP       0.2254
     31 H7          5.3110   38.7768   48.7711 H           1 XMP       0.1125
     32 H8          5.2414   35.3957   46.2056 H           1 XMP       0.0676
     33 H9          6.1149   35.8158   48.3084 H           1 XMP       0.2101
     34 H10         6.7597   34.8878   44.5794 H           1 XMP       0.0648
     35 H11         8.7465   36.1493   46.1375 H           1 XMP       0.2100
@<TRIPOS>BOND
     1     1     2  ar
     2     1     3  ar
     3     1     4   1
     4     1     5  ar
     5     4     6   1
     6     6     7   1
     7     7     8   1
     8     7    23   1
     9     8     9   1
    10     9    10   1
    11     9    21   1
    12    10    11   1
    13    10    20   1
    14    11    12  am
    15    11    18   2
    16    12    14  am
    17    14    13  am
    18    13    16  am
    19    14    15   2
    20    16    17   2
    21    16    18   1
    22    18    19   1
    23    19    20   2
    24    21    22   1
    25    21    23   1
    26    23    24   1
    27     6    25   1
    28     6    26   1
    29     7    27   1
    30     9    28   1
    31    12    29   1
    32    13    30   1
    33    20    31   1
    34    21    32   1
    35    22    33   1
    36    23    34   1
    37    24    35   1
@<TRIPOS>SUBSTRUCTURE
     1  XMP      6

