@<TRIPOS>MOLECULE
1lol_ligand_012
    35    37
SMALL
GAST_HUCK
****
This file was generated by PARSER (from files_GN.cpp)

@<TRIPOS>ATOM
      1 P          -2.7088   35.3998   39.6612 P.3         1 XMP       0.2008
      2 O1P        -2.9804   35.9355   38.3532 O.co2       1 XMP      -0.5537
      3 O2P        -3.8279   34.5726   40.0198 O.co2       1 XMP      -0.5537
      4 O5'        -2.6203   36.5515   40.7106 O.3         1 XMP      -0.2734
      5 O3P        -1.5393   34.5589   39.6258 O.co2       1 XMP      -0.5537
      6 C5'        -1.3832   37.2915   40.7351 C.3         1 XMP       0.1072
      7 C4'        -1.6398   38.6775   41.3663 C.3         1 XMP       0.1182
      8 O4'        -1.9165   38.6323   42.7739 O.3         1 XMP      -0.3363
      9 C1'        -1.6405   39.9441   43.3098 C.3         1 XMP       0.2010
     10 N9         -0.9824   39.8339   44.5857 N.pl3       1 XMP      -0.1896
     11 C4          0.0415   39.0189   44.8900 C.2         1 XMP       0.2049
     12 N3          0.6972   38.0667   44.1600 N.am        1 XMP      -0.1835
     13 N1          1.8809   37.4321   46.0493 N.am        1 XMP      -0.1870
     14 C2          1.5875   37.2763   44.7515 C.2         1 XMP       0.3214
     15 O2          2.0854   36.3600   44.1182 O.2         1 XMP      -0.3846
     16 C6          1.3009   38.3673   46.8037 C.2         1 XMP       0.1997
     17 O6          1.5862   38.4582   47.9895 O.2         1 XMP      -0.4080
     18 C5          0.3260   39.1772   46.2426 C.2         1 XMP       0.1084
     19 N7         -0.5238   40.0802   46.7513 N.2         1 XMP      -0.3331
     20 C8         -1.3005   40.4875   45.7274 C.2         1 XMP       0.0923
     21 C2'        -0.7911   40.7156   42.2610 C.3         1 XMP       0.1387
     22 O2'        -1.5552   41.7346   41.6086 O.3         1 XMP      -0.3836
     23 C3'        -0.4335   39.6220   41.2450 C.3         1 XMP       0.1149
     24 O3'        -0.2505   40.0747   39.9045 O.3         1 XMP      -0.3864
     25 H1         -0.9782   37.4453   39.7306 H           1 XMP       0.0639
     26 H2         -0.6448   36.7557   41.3301 H           1 XMP       0.0639
     27 H3         -2.4906   39.1292   40.8447 H           1 XMP       0.0650
     28 H4         -2.6066   40.4450   43.4436 H           1 XMP       0.0998
     29 H5          0.4673   37.9232   43.2312 H           1 XMP       0.2360
     30 H6          2.5250   36.8326   46.4565 H           1 XMP       0.2254
     31 H7         -2.0613   41.1616   45.8276 H           1 XMP       0.1125
     32 H8          0.1096   41.1646   42.6922 H           1 XMP       0.0676
     33 H9         -2.0816   42.1750   42.3071 H           1 XMP       0.2101
     34 H10         0.4812   39.1194   41.5553 H           1 XMP       0.0648
     35 H11         0.5192   40.6770   39.9374 H           1 XMP       0.2100
@<TRIPOS>BOND
     1     1     2  ar
     2     1     3  ar
     3     1     4   1
     4     1     5  ar
     5     4     6   1
     6     6     7   1
     7     7     8   1
     8     7    23   1
     9     8     9   1
    10     9    10   1
    11     9    21   1
    12    10    11   1
    13    10    20   1
    14    11    12  am
    15    11    18   2
    16    12    14  am
    17    14    13  am
    18    13    16  am
    19    14    15   2
    20    16    17   2
    21    16    18   1
    22    18    19   1
    23    19    20   2
    24    21    22   1
    25    21    23   1
    26    23    24   1
    27     6    25   1
    28     6    26   1
    29     7    27   1
    30     9    28   1
    31    12    29   1
    32    13    30   1
    33    20    31   1
    34    21    32   1
    35    22    33   1
    36    23    34   1
    37    24    35   1
@<TRIPOS>SUBSTRUCTURE
     1  XMP      6

