@<TRIPOS>MOLECULE
1lol_ligand_019
    35    37
SMALL
GAST_HUCK
****
This file was generated by PARSER (from files_GN.cpp)

@<TRIPOS>ATOM
      1 P          -0.5532   42.3480   46.7111 P.3         1 XMP       0.2008
      2 O1P        -1.7261   42.5264   45.8924 O.co2       1 XMP      -0.5537
      3 O2P        -0.6895   41.0515   47.3276 O.co2       1 XMP      -0.5537
      4 O5'        -0.5313   43.5247   47.7373 O.3         1 XMP      -0.2734
      5 O3P         0.5760   42.3356   45.8164 O.co2       1 XMP      -0.5537
      6 C5'         0.4430   43.5609   48.8022 C.3         1 XMP       0.1072
      7 C4'         1.9603   43.5955   48.4250 C.3         1 XMP       0.1182
      8 O4'         2.1161   43.8371   47.0226 O.3         1 XMP      -0.3363
      9 C1'         3.3815   44.4797   46.8098 C.3         1 XMP       0.2010
     10 N9          3.4101   44.9748   45.4612 N.pl3       1 XMP      -0.1896
     11 C4          3.2782   44.2004   44.3711 C.2         1 XMP       0.2049
     12 N3          3.0772   42.8538   44.2119 N.am        1 XMP      -0.1835
     13 N1          2.9388   43.1485   41.9125 N.am        1 XMP      -0.1870
     14 C2          2.9017   42.3501   42.9877 C.2         1 XMP       0.3214
     15 O2          2.6827   41.1591   42.8487 O.2         1 XMP      -0.3846
     16 C6          3.1805   44.4595   42.0001 C.2         1 XMP       0.1997
     17 O6          3.2362   45.1514   40.9961 O.2         1 XMP      -0.4080
     18 C5          3.3330   45.0290   43.2539 C.2         1 XMP       0.1084
     19 N7          3.5082   46.2892   43.6692 N.2         1 XMP      -0.3331
     20 C8          3.5442   46.2425   45.0130 C.2         1 XMP       0.0923
     21 C2'         3.4298   45.4911   47.9710 C.3         1 XMP       0.1387
     22 O2'         4.7484   45.9944   48.2041 O.3         1 XMP      -0.3836
     23 C3'         2.8490   44.6677   49.1368 C.3         1 XMP       0.1149
     24 O3'         3.8817   44.0304   49.8992 O.3         1 XMP      -0.3864
     25 H1          0.2643   42.7356   49.4964 H           1 XMP       0.0639
     26 H2          0.1946   44.4717   49.3449 H           1 XMP       0.0639
     27 H3          2.3772   42.5967   48.6179 H           1 XMP       0.0650
     28 H4          4.1992   43.7522   46.9197 H           1 XMP       0.0998
     29 H5          3.0437   42.2689   44.9832 H           1 XMP       0.2360
     30 H6          2.7626   42.7656   41.0351 H           1 XMP       0.2254
     31 H7          3.6460   47.0680   45.5981 H           1 XMP       0.1125
     32 H8          2.7612   46.3341   47.7646 H           1 XMP       0.0676
     33 H9          4.6187   46.8194   48.7178 H           1 XMP       0.2101
     34 H10         2.2798   45.3149   49.8111 H           1 XMP       0.0648
     35 H11         4.3895   44.7404   50.3469 H           1 XMP       0.2100
@<TRIPOS>BOND
     1     1     2  ar
     2     1     3  ar
     3     1     4   1
     4     1     5  ar
     5     4     6   1
     6     6     7   1
     7     7     8   1
     8     7    23   1
     9     8     9   1
    10     9    10   1
    11     9    21   1
    12    10    11   1
    13    10    20   1
    14    11    12  am
    15    11    18   2
    16    12    14  am
    17    14    13  am
    18    13    16  am
    19    14    15   2
    20    16    17   2
    21    16    18   1
    22    18    19   1
    23    19    20   2
    24    21    22   1
    25    21    23   1
    26    23    24   1
    27     6    25   1
    28     6    26   1
    29     7    27   1
    30     9    28   1
    31    12    29   1
    32    13    30   1
    33    20    31   1
    34    21    32   1
    35    22    33   1
    36    23    34   1
    37    24    35   1
@<TRIPOS>SUBSTRUCTURE
     1  XMP      6

