@<TRIPOS>MOLECULE
1lol_ligand_044
    35    37
SMALL
GAST_HUCK
****
This file was generated by PARSER (from files_GN.cpp)

@<TRIPOS>ATOM
      1 P           0.1584   43.8329   50.6320 P.3         1 XMP       0.2008
      2 O1P        -0.4022   44.6411   51.6756 O.co2       1 XMP      -0.5537
      3 O2P         1.5012   43.4144   50.9739 O.co2       1 XMP      -0.5537
      4 O5'         0.0671   44.5328   49.2447 O.3         1 XMP      -0.2734
      5 O3P        -0.6310   42.6412   50.5335 O.co2       1 XMP      -0.5537
      6 C5'         0.9061   45.6809   48.9775 C.3         1 XMP       0.1072
      7 C4'         2.4278   45.3748   48.8592 C.3         1 XMP       0.1182
      8 O4'         2.5988   44.0837   48.2605 O.3         1 XMP      -0.3363
      9 C1'         3.7602   44.0947   47.4197 C.3         1 XMP       0.2010
     10 N9          3.7377   43.0080   46.4706 N.pl3       1 XMP      -0.1896
     11 C4          2.9294   41.9252   46.4731 C.2         1 XMP       0.2049
     12 N3          1.9220   41.5127   47.3106 N.am        1 XMP      -0.1835
     13 N1          1.6384   39.5926   46.0387 N.am        1 XMP      -0.1870
     14 C2          1.2964   40.3593   47.0801 C.2         1 XMP       0.3214
     15 O2          0.3979   39.9999   47.8245 O.2         1 XMP      -0.3846
     16 C6          2.6166   39.9279   45.1960 C.2         1 XMP       0.1997
     17 O6          2.8951   39.1971   44.2565 O.2         1 XMP      -0.4080
     18 C5          3.3022   41.1161   45.4019 C.2         1 XMP       0.1084
     19 N7          4.3351   41.6887   44.7739 N.2         1 XMP      -0.3331
     20 C8          4.5942   42.8284   45.4379 C.2         1 XMP       0.0923
     21 C2'         3.7454   45.5173   46.8256 C.3         1 XMP       0.1387
     22 O2'         5.0249   45.9413   46.3728 O.3         1 XMP      -0.3836
     23 C3'         3.2349   46.3798   47.9948 C.3         1 XMP       0.1149
     24 O3'         4.3162   46.9412   48.7408 O.3         1 XMP      -0.3864
     25 H1          0.7422   46.4676   49.7234 H           1 XMP       0.0639
     26 H2          0.5584   46.0687   48.0196 H           1 XMP       0.0639
     27 H3          2.8469   45.3255   49.8693 H           1 XMP       0.0650
     28 H4          4.6508   43.9829   48.0471 H           1 XMP       0.0998
     29 H5          1.6732   42.0514   48.0752 H           1 XMP       0.2360
     30 H6          1.1580   38.7598   45.8918 H           1 XMP       0.2254
     31 H7          5.3570   43.4544   45.1829 H           1 XMP       0.1125
     32 H8          3.0353   45.5701   45.9920 H           1 XMP       0.0676
     33 H9          5.1794   45.4874   45.5203 H           1 XMP       0.2101
     34 H10         2.6207   47.2009   47.6147 H           1 XMP       0.0648
     35 H11         3.9162   47.5514   49.3962 H           1 XMP       0.2100
@<TRIPOS>BOND
     1     1     2  ar
     2     1     3  ar
     3     1     4   1
     4     1     5  ar
     5     4     6   1
     6     6     7   1
     7     7     8   1
     8     7    23   1
     9     8     9   1
    10     9    10   1
    11     9    21   1
    12    10    11   1
    13    10    20   1
    14    11    12  am
    15    11    18   2
    16    12    14  am
    17    14    13  am
    18    13    16  am
    19    14    15   2
    20    16    17   2
    21    16    18   1
    22    18    19   1
    23    19    20   2
    24    21    22   1
    25    21    23   1
    26    23    24   1
    27     6    25   1
    28     6    26   1
    29     7    27   1
    30     9    28   1
    31    12    29   1
    32    13    30   1
    33    20    31   1
    34    21    32   1
    35    22    33   1
    36    23    34   1
    37    24    35   1
@<TRIPOS>SUBSTRUCTURE
     1  XMP      6

