@<TRIPOS>MOLECULE
1lol_ligand_087
    35    37
SMALL
GAST_HUCK
****
This file was generated by PARSER (from files_GN.cpp)

@<TRIPOS>ATOM
      1 P           3.7970   42.9105   41.9185 P.3         1 XMP       0.2008
      2 O1P         4.6914   43.4622   40.9257 O.co2       1 XMP      -0.5537
      3 O2P         2.6595   43.7902   41.9536 O.co2       1 XMP      -0.5537
      4 O5'         4.6299   42.8870   43.2352 O.3         1 XMP      -0.2734
      5 O3P         3.4426   41.5996   41.4337 O.co2       1 XMP      -0.5537
      6 C5'         3.9709   43.0441   44.5108 C.3         1 XMP       0.1072
      7 C4'         3.9786   41.7300   45.3439 C.3         1 XMP       0.1182
      8 O4'         3.7899   42.0273   46.7357 O.3         1 XMP      -0.3363
      9 C1'         2.4074   41.8412   47.0985 C.3         1 XMP       0.2010
     10 N9          1.7804   43.0398   47.5915 N.pl3       1 XMP      -0.1896
     11 C4          2.3319   44.2418   47.8473 C.2         1 XMP       0.2049
     12 N3          3.6096   44.7254   47.7350 N.am        1 XMP      -0.1835
     13 N1          2.9272   46.7665   48.6059 N.am        1 XMP      -0.1870
     14 C2          3.8845   45.9740   48.1135 C.2         1 XMP       0.3214
     15 O2          5.0262   46.3919   48.0054 O.2         1 XMP      -0.3846
     16 C6          1.6597   46.3612   48.7238 C.2         1 XMP       0.1997
     17 O6          0.8182   47.1173   49.1856 O.2         1 XMP      -0.4080
     18 C5          1.3275   45.0685   48.3484 C.2         1 XMP       0.1084
     19 N7          0.1826   44.3729   48.3947 N.2         1 XMP      -0.3331
     20 C8          0.4766   43.1397   47.9460 C.2         1 XMP       0.0923
     21 C2'         1.6994   41.2258   45.8643 C.3         1 XMP       0.1387
     22 O2'         0.7527   40.2092   46.1984 O.3         1 XMP      -0.3836
     23 C3'         2.8648   40.7163   45.0064 C.3         1 XMP       0.1149
     24 O3'         3.2596   39.3941   45.3813 O.3         1 XMP      -0.3864
     25 H1          2.9599   43.4674   44.4443 H           1 XMP       0.0639
     26 H2          4.5828   43.7755   45.0508 H           1 XMP       0.0639
     27 H3          4.9632   41.2633   45.2239 H           1 XMP       0.0650
     28 H4          2.4059   41.1068   47.9123 H           1 XMP       0.0998
     29 H5          4.3174   44.1571   47.3920 H           1 XMP       0.2360
     30 H6          3.1660   47.6587   48.9049 H           1 XMP       0.2254
     31 H7         -0.2123   42.3839   47.8831 H           1 XMP       0.1125
     32 H8          1.1645   42.0037   45.3095 H           1 XMP       0.0676
     33 H9          1.2575   39.5195   46.6791 H           1 XMP       0.2101
     34 H10         2.6052   40.7095   43.9473 H           1 XMP       0.0648
     35 H11         3.5569   39.4570   46.3143 H           1 XMP       0.2100
@<TRIPOS>BOND
     1     1     2  ar
     2     1     3  ar
     3     1     4   1
     4     1     5  ar
     5     4     6   1
     6     6     7   1
     7     7     8   1
     8     7    23   1
     9     8     9   1
    10     9    10   1
    11     9    21   1
    12    10    11   1
    13    10    20   1
    14    11    12  am
    15    11    18   2
    16    12    14  am
    17    14    13  am
    18    13    16  am
    19    14    15   2
    20    16    17   2
    21    16    18   1
    22    18    19   1
    23    19    20   2
    24    21    22   1
    25    21    23   1
    26    23    24   1
    27     6    25   1
    28     6    26   1
    29     7    27   1
    30     9    28   1
    31    12    29   1
    32    13    30   1
    33    20    31   1
    34    21    32   1
    35    22    33   1
    36    23    34   1
    37    24    35   1
@<TRIPOS>SUBSTRUCTURE
     1  XMP      6

