@<TRIPOS>MOLECULE
1lol_ligand_057
    35    37
SMALL
GAST_HUCK
****
This file was generated by PARSER (from files_GN.cpp)

@<TRIPOS>ATOM
      1 P           0.1206   43.6588   50.8414 P.3         1 XMP       0.2008
      2 O1P        -0.8595   43.9528   51.8693 O.co2       1 XMP      -0.5537
      3 O2P         1.4200   43.8778   51.4192 O.co2       1 XMP      -0.5537
      4 O5'        -0.1945   44.3716   49.4888 O.3         1 XMP      -0.2734
      5 O3P         0.0324   42.2358   50.6057 O.co2       1 XMP      -0.5537
      6 C5'         0.6515   45.4698   49.0863 C.3         1 XMP       0.1072
      7 C4'         2.0962   45.0396   48.7102 C.3         1 XMP       0.1182
      8 O4'         2.2468   44.6696   47.3290 O.3         1 XMP      -0.3363
      9 C1'         3.6611   44.6986   47.0499 C.3         1 XMP       0.2010
     10 N9          3.8849   45.2207   45.7309 N.pl3       1 XMP      -0.1896
     11 C4          4.6457   44.6852   44.7573 C.2         1 XMP       0.2049
     12 N3          5.4439   43.5737   44.7018 N.am        1 XMP      -0.1835
     13 N1          5.9753   44.0604   42.4924 N.am        1 XMP      -0.1870
     14 C2          6.1128   43.2932   43.5774 C.2         1 XMP       0.3214
     15 O2          6.8459   42.3195   43.5344 O.2         1 XMP      -0.3846
     16 C6          5.1991   45.1480   42.4800 C.2         1 XMP       0.1997
     17 O6          5.1108   45.8224   41.4658 O.2         1 XMP      -0.4080
     18 C5          4.5154   45.4945   43.6329 C.2         1 XMP       0.1084
     19 N7          3.6912   46.5062   43.9255 N.2         1 XMP      -0.3331
     20 C8          3.3252   46.3353   45.2103 C.2         1 XMP       0.0923
     21 C2'         4.3474   45.5209   48.1759 C.3         1 XMP       0.1387
     22 O2'         5.0668   44.6383   49.0496 O.3         1 XMP      -0.3836
     23 C3'         3.1472   46.1496   48.8975 C.3         1 XMP       0.1149
     24 O3'         3.3746   46.4496   50.2740 O.3         1 XMP      -0.3864
     25 H1          0.6568   46.2412   49.8648 H           1 XMP       0.0639
     26 H2          0.1869   45.9155   48.2081 H           1 XMP       0.0639
     27 H3          2.3821   44.1746   49.3275 H           1 XMP       0.0650
     28 H4          4.0092   43.6622   47.0934 H           1 XMP       0.0998
     29 H5          5.5251   42.9932   45.4728 H           1 XMP       0.2360
     30 H6          6.4692   43.8285   41.6897 H           1 XMP       0.2254
     31 H7          2.6858   46.9631   45.7031 H           1 XMP       0.1125
     32 H8          5.0304   46.2930   47.8052 H           1 XMP       0.0676
     33 H9          5.0282   45.0429   49.9421 H           1 XMP       0.2101
     34 H10         2.8363   47.0562   48.3728 H           1 XMP       0.0648
     35 H11         3.8803   47.2930   50.2761 H           1 XMP       0.2100
@<TRIPOS>BOND
     1     1     2  ar
     2     1     3  ar
     3     1     4   1
     4     1     5  ar
     5     4     6   1
     6     6     7   1
     7     7     8   1
     8     7    23   1
     9     8     9   1
    10     9    10   1
    11     9    21   1
    12    10    11   1
    13    10    20   1
    14    11    12  am
    15    11    18   2
    16    12    14  am
    17    14    13  am
    18    13    16  am
    19    14    15   2
    20    16    17   2
    21    16    18   1
    22    18    19   1
    23    19    20   2
    24    21    22   1
    25    21    23   1
    26    23    24   1
    27     6    25   1
    28     6    26   1
    29     7    27   1
    30     9    28   1
    31    12    29   1
    32    13    30   1
    33    20    31   1
    34    21    32   1
    35    22    33   1
    36    23    34   1
    37    24    35   1
@<TRIPOS>SUBSTRUCTURE
     1  XMP      6

