@<TRIPOS>MOLECULE
1lol_ligand_084
    35    37
SMALL
GAST_HUCK
****
This file was generated by PARSER (from files_GN.cpp)

@<TRIPOS>ATOM
      1 P           1.1244   40.5199   43.2491 P.3         1 XMP       0.2008
      2 O1P         2.1009   41.4720   42.7764 O.co2       1 XMP      -0.5537
      3 O2P         0.3871   40.0367   42.1087 O.co2       1 XMP      -0.5537
      4 O5'         0.2534   41.2583   44.2961 O.3         1 XMP      -0.2734
      5 O3P         1.8691   39.4393   43.8589 O.co2       1 XMP      -0.5537
      6 C5'        -0.6169   40.4605   45.1204 C.3         1 XMP       0.1072
      7 C4'        -1.0088   41.2277   46.4164 C.3         1 XMP       0.1182
      8 O4'         0.0716   41.2631   47.3514 O.3         1 XMP      -0.3363
      9 C1'         0.7963   42.5058   47.2426 C.3         1 XMP       0.2010
     10 N9          2.0918   42.3595   46.6209 N.pl3       1 XMP      -0.1896
     11 C4          2.9533   43.3426   46.3070 C.2         1 XMP       0.2049
     12 N3          2.9156   44.6963   46.4900 N.am        1 XMP      -0.1835
     13 N1          4.9741   44.9115   45.4341 N.am        1 XMP      -0.1870
     14 C2          3.9243   45.4535   46.0611 C.2         1 XMP       0.3214
     15 O2          3.8852   46.6573   46.2432 O.2         1 XMP      -0.3846
     16 C6          5.0572   43.5943   45.2092 C.2         1 XMP       0.1997
     17 O6          6.0077   43.1408   44.5937 O.2         1 XMP      -0.4080
     18 C5          4.0513   42.7635   45.6759 C.2         1 XMP       0.1084
     19 N7          3.8808   41.4397   45.6615 N.2         1 XMP      -0.3331
     20 C8          2.6971   41.2077   46.2546 C.2         1 XMP       0.0923
     21 C2'        -0.1624   43.5007   46.5224 C.3         1 XMP       0.1387
     22 O2'        -0.4271   44.6495   47.3245 O.3         1 XMP      -0.3836
     23 C3'        -1.4401   42.6933   46.2047 C.3         1 XMP       0.1149
     24 O3'        -2.5376   43.0119   47.0642 O.3         1 XMP      -0.3864
     25 H1         -0.1592   39.5186   45.4166 H           1 XMP       0.0639
     26 H2         -1.5291   40.2196   44.5668 H           1 XMP       0.0639
     27 H3         -1.8236   40.6693   46.8837 H           1 XMP       0.0650
     28 H4          0.9738   42.8507   48.2623 H           1 XMP       0.0998
     29 H5          2.1602   45.1027   46.9429 H           1 XMP       0.2360
     30 H6          5.6915   45.4882   45.1203 H           1 XMP       0.2254
     31 H7          2.3146   40.2693   46.3810 H           1 XMP       0.1125
     32 H8          0.2729   43.8515   45.5879 H           1 XMP       0.0676
     33 H9         -1.1428   45.1342   46.8636 H           1 XMP       0.2101
     34 H10        -1.7574   42.8791   45.1735 H           1 XMP       0.0648
     35 H11        -2.8855   43.8651   46.7354 H           1 XMP       0.2100
@<TRIPOS>BOND
     1     1     2  ar
     2     1     3  ar
     3     1     4   1
     4     1     5  ar
     5     4     6   1
     6     6     7   1
     7     7     8   1
     8     7    23   1
     9     8     9   1
    10     9    10   1
    11     9    21   1
    12    10    11   1
    13    10    20   1
    14    11    12  am
    15    11    18   2
    16    12    14  am
    17    14    13  am
    18    13    16  am
    19    14    15   2
    20    16    17   2
    21    16    18   1
    22    18    19   1
    23    19    20   2
    24    21    22   1
    25    21    23   1
    26    23    24   1
    27     6    25   1
    28     6    26   1
    29     7    27   1
    30     9    28   1
    31    12    29   1
    32    13    30   1
    33    20    31   1
    34    21    32   1
    35    22    33   1
    36    23    34   1
    37    24    35   1
@<TRIPOS>SUBSTRUCTURE
     1  XMP      6

