@<TRIPOS>MOLECULE
1lol_ligand_059
    35    37
SMALL
GAST_HUCK
****
This file was generated by PARSER (from files_GN.cpp)

@<TRIPOS>ATOM
      1 P          -1.3910   38.2728   40.3888 P.3         1 XMP       0.2008
      2 O1P        -0.8573   37.0228   39.8836 O.co2       1 XMP      -0.5537
      3 O2P        -1.5790   39.1761   39.2749 O.co2       1 XMP      -0.5537
      4 O5'        -0.5164   38.7853   41.5740 O.3         1 XMP      -0.2734
      5 O3P        -2.6927   37.9509   40.9462 O.co2       1 XMP      -0.5537
      6 C5'         0.0516   40.1134   41.4733 C.3         1 XMP       0.1072
      7 C4'         0.6460   40.5772   42.8316 C.3         1 XMP       0.1182
      8 O4'        -0.3736   41.2374   43.6050 O.3         1 XMP      -0.3363
      9 C1'        -0.4128   40.6724   44.9235 C.3         1 XMP       0.2010
     10 N9         -1.7361   40.7561   45.4770 N.pl3       1 XMP      -0.1896
     11 C4         -2.8955   40.4392   44.8728 C.2         1 XMP       0.2049
     12 N3         -3.1919   39.9956   43.6121 N.am        1 XMP      -0.1835
     13 N1         -5.4561   40.0831   44.1172 N.am        1 XMP      -0.1870
     14 C2         -4.4685   39.8440   43.2512 C.2         1 XMP       0.3214
     15 O2         -4.7402   39.5022   42.1117 O.2         1 XMP      -0.3846
     16 C6         -5.2298   40.5042   45.3659 C.2         1 XMP       0.1997
     17 O6         -6.1695   40.7240   46.1135 O.2         1 XMP      -0.4080
     18 C5         -3.9247   40.7148   45.7720 C.2         1 XMP       0.1084
     19 N7         -3.3887   41.1892   46.9041 N.2         1 XMP      -0.3331
     20 C8         -2.0573   41.2130   46.7084 C.2         1 XMP       0.0923
     21 C2'         0.1129   39.2341   44.7489 C.3         1 XMP       0.1387
     22 O2'         0.5946   38.6282   45.9457 O.3         1 XMP      -0.3836
     23 C3'         1.2264   39.4371   43.7161 C.3         1 XMP       0.1149
     24 O3'         2.4667   39.8210   44.3224 O.3         1 XMP      -0.3864
     25 H1         -0.7181   40.8406   41.1819 H           1 XMP       0.0639
     26 H2          0.8377   40.1283   40.7081 H           1 XMP       0.0639
     27 H3          1.4232   41.3080   42.6218 H           1 XMP       0.0650
     28 H4          0.2895   41.2351   45.5556 H           1 XMP       0.0998
     29 H5         -2.4804   39.8243   42.9763 H           1 XMP       0.2360
     30 H6         -6.3732   39.9612   43.8249 H           1 XMP       0.2254
     31 H7         -1.3876   41.5447   47.4066 H           1 XMP       0.1125
     32 H8         -0.6683   38.6017   44.3123 H           1 XMP       0.0676
     33 H9         -0.1928   38.1700   46.2943 H           1 XMP       0.2101
     34 H10         1.3966   38.4973   43.1811 H           1 XMP       0.0648
     35 H11         2.2965   40.7014   44.7181 H           1 XMP       0.2100
@<TRIPOS>BOND
     1     1     2  ar
     2     1     3  ar
     3     1     4   1
     4     1     5  ar
     5     4     6   1
     6     6     7   1
     7     7     8   1
     8     7    23   1
     9     8     9   1
    10     9    10   1
    11     9    21   1
    12    10    11   1
    13    10    20   1
    14    11    12  am
    15    11    18   2
    16    12    14  am
    17    14    13  am
    18    13    16  am
    19    14    15   2
    20    16    17   2
    21    16    18   1
    22    18    19   1
    23    19    20   2
    24    21    22   1
    25    21    23   1
    26    23    24   1
    27     6    25   1
    28     6    26   1
    29     7    27   1
    30     9    28   1
    31    12    29   1
    32    13    30   1
    33    20    31   1
    34    21    32   1
    35    22    33   1
    36    23    34   1
    37    24    35   1
@<TRIPOS>SUBSTRUCTURE
     1  XMP      6

