@<TRIPOS>MOLECULE
1lol_ligand_021
    35    37
SMALL
GAST_HUCK
****
This file was generated by PARSER (from files_GN.cpp)

@<TRIPOS>ATOM
      1 P           4.4467   35.6521   43.9189 P.3         1 XMP       0.2008
      2 O1P         5.6428   36.4538   44.0452 O.co2       1 XMP      -0.5537
      3 O2P         3.8203   35.9518   42.6516 O.co2       1 XMP      -0.5537
      4 O5'         3.4911   35.8770   45.1315 O.3         1 XMP      -0.2734
      5 O3P         4.8349   34.2621   43.8827 O.co2       1 XMP      -0.5537
      6 C5'         2.4380   36.8561   44.9483 C.3         1 XMP       0.1072
      7 C4'         1.7767   37.2047   46.3146 C.3         1 XMP       0.1182
      8 O4'         2.6861   37.1097   47.4119 O.3         1 XMP      -0.3363
      9 C1'         3.4603   38.3230   47.4925 C.3         1 XMP       0.2010
     10 N9          4.7907   38.0558   46.9750 N.pl3       1 XMP      -0.1896
     11 C4          5.6329   38.8075   46.2377 C.2         1 XMP       0.2049
     12 N3          5.5827   40.0901   45.7539 N.am        1 XMP      -0.1835
     13 N1          7.5912   39.7705   44.6375 N.am        1 XMP      -0.1870
     14 C2          6.5518   40.5470   44.9607 C.2         1 XMP       0.3214
     15 O2          6.4836   41.6811   44.5205 O.2         1 XMP      -0.3846
     16 C6          7.7144   38.5197   45.0865 C.2         1 XMP       0.1997
     17 O6          8.6680   37.8346   44.7437 O.2         1 XMP      -0.4080
     18 C5          6.7262   38.0066   45.9128 C.2         1 XMP       0.1084
     19 N7          6.5931   36.8183   46.5038 N.2         1 XMP      -0.3331
     20 C8          5.4231   36.8692   47.1571 C.2         1 XMP       0.0923
     21 C2'         2.5697   39.4043   46.8041 C.3         1 XMP       0.1387
     22 O2'         2.3503   40.5469   47.6387 O.3         1 XMP      -0.3836
     23 C3'         1.2744   38.6592   46.4222 C.3         1 XMP       0.1149
     24 O3'         0.2675   38.7955   47.4317 O.3         1 XMP      -0.3864
     25 H1          1.6601   36.4547   44.2827 H           1 XMP       0.0639
     26 H2          2.8366   37.7687   44.4872 H           1 XMP       0.0639
     27 H3          0.9523   36.5090   46.4891 H           1 XMP       0.0650
     28 H4          3.5676   38.5623   48.5561 H           1 XMP       0.0998
     29 H5          4.8672   40.6877   46.0189 H           1 XMP       0.2360
     30 H6          8.2750   40.1230   44.0454 H           1 XMP       0.2254
     31 H7          5.0539   36.0795   47.6809 H           1 XMP       0.1125
     32 H8          3.0208   39.7563   45.8760 H           1 XMP       0.0676
     33 H9          1.8006   41.1537   47.0892 H           1 XMP       0.2101
     34 H10         0.8662   39.0263   45.4767 H           1 XMP       0.0648
     35 H11        -0.5323   38.3832   47.0394 H           1 XMP       0.2100
@<TRIPOS>BOND
     1     1     2  ar
     2     1     3  ar
     3     1     4   1
     4     1     5  ar
     5     4     6   1
     6     6     7   1
     7     7     8   1
     8     7    23   1
     9     8     9   1
    10     9    10   1
    11     9    21   1
    12    10    11   1
    13    10    20   1
    14    11    12  am
    15    11    18   2
    16    12    14  am
    17    14    13  am
    18    13    16  am
    19    14    15   2
    20    16    17   2
    21    16    18   1
    22    18    19   1
    23    19    20   2
    24    21    22   1
    25    21    23   1
    26    23    24   1
    27     6    25   1
    28     6    26   1
    29     7    27   1
    30     9    28   1
    31    12    29   1
    32    13    30   1
    33    20    31   1
    34    21    32   1
    35    22    33   1
    36    23    34   1
    37    24    35   1
@<TRIPOS>SUBSTRUCTURE
     1  XMP      6

