@<TRIPOS>MOLECULE
1lol_ligand_067
    35    37
SMALL
GAST_HUCK
****
This file was generated by PARSER (from files_GN.cpp)

@<TRIPOS>ATOM
      1 P           5.0358   41.8291   43.6306 P.3         1 XMP       0.2008
      2 O1P         4.9118   42.2152   42.2460 O.co2       1 XMP      -0.5537
      3 O2P         4.5806   40.4727   43.8059 O.co2       1 XMP      -0.5537
      4 O5'         4.2866   42.8344   44.5541 O.3         1 XMP      -0.2734
      5 O3P         6.4396   41.8627   43.9621 O.co2       1 XMP      -0.5537
      6 C5'         2.8396   42.8255   44.5417 C.3         1 XMP       0.1072
      7 C4'         2.2455   41.8920   45.6327 C.3         1 XMP       0.1182
      8 O4'         3.0087   42.0127   46.8371 O.3         1 XMP      -0.3363
      9 C1'         2.1774   41.6933   47.9637 C.3         1 XMP       0.2010
     10 N9          2.3878   42.6347   49.0310 N.pl3       1 XMP      -0.1896
     11 C4          2.8969   43.8832   48.9708 C.2         1 XMP       0.2049
     12 N3          3.3632   44.6575   47.9396 N.am        1 XMP      -0.1835
     13 N1          3.8294   46.3742   49.4313 N.am        1 XMP      -0.1870
     14 C2          3.8221   45.8855   48.1868 C.2         1 XMP       0.3214
     15 O2          4.2420   46.5682   47.2640 O.2         1 XMP      -0.3846
     16 C6          3.3849   45.6693   50.4752 C.2         1 XMP       0.1997
     17 O6          3.4169   46.1499   51.5967 O.2         1 XMP      -0.4080
     18 C5          2.8989   44.3892   50.2670 C.2         1 XMP       0.1084
     19 N7          2.3964   43.4635   51.0951 N.2         1 XMP      -0.3331
     20 C8          2.0853   42.4039   50.3283 C.2         1 XMP       0.0923
     21 C2'         0.7041   41.6544   47.4751 C.3         1 XMP       0.1387
     22 O2'         0.1803   40.3251   47.5063 O.3         1 XMP      -0.3836
     23 C3'         0.7938   42.2224   46.0481 C.3         1 XMP       0.1149
     24 O3'        -0.1874   41.7004   45.1496 O.3         1 XMP      -0.3864
     25 H1          2.4152   42.5737   43.5651 H           1 XMP       0.0639
     26 H2          2.5411   43.8526   44.7586 H           1 XMP       0.0639
     27 H3          2.3018   40.8536   45.2936 H           1 XMP       0.0650
     28 H4          2.4942   40.7012   48.3044 H           1 XMP       0.0998
     29 H5          3.3622   44.3130   47.0337 H           1 XMP       0.2360
     30 H6          4.1689   47.2732   49.5831 H           1 XMP       0.2254
     31 H7          1.6804   41.5376   50.6948 H           1 XMP       0.1125
     32 H8          0.0485   42.2758   48.0905 H           1 XMP       0.0676
     33 H9          0.7778   39.7916   46.9352 H           1 XMP       0.2101
     34 H10         0.6552   43.3081   46.1013 H           1 XMP       0.0648
     35 H11        -0.0339   40.7330   45.1173 H           1 XMP       0.2100
@<TRIPOS>BOND
     1     1     2  ar
     2     1     3  ar
     3     1     4   1
     4     1     5  ar
     5     4     6   1
     6     6     7   1
     7     7     8   1
     8     7    23   1
     9     8     9   1
    10     9    10   1
    11     9    21   1
    12    10    11   1
    13    10    20   1
    14    11    12  am
    15    11    18   2
    16    12    14  am
    17    14    13  am
    18    13    16  am
    19    14    15   2
    20    16    17   2
    21    16    18   1
    22    18    19   1
    23    19    20   2
    24    21    22   1
    25    21    23   1
    26    23    24   1
    27     6    25   1
    28     6    26   1
    29     7    27   1
    30     9    28   1
    31    12    29   1
    32    13    30   1
    33    20    31   1
    34    21    32   1
    35    22    33   1
    36    23    34   1
    37    24    35   1
@<TRIPOS>SUBSTRUCTURE
     1  XMP      6

