@<TRIPOS>MOLECULE
1lol_ligand_029
    35    37
SMALL
GAST_HUCK
****
This file was generated by PARSER (from files_GN.cpp)

@<TRIPOS>ATOM
      1 P           1.5840   42.4761   50.9811 P.3         1 XMP       0.2008
      2 O1P         1.4224   43.8814   50.7146 O.co2       1 XMP      -0.5537
      3 O2P         2.9797   42.1782   51.1748 O.co2       1 XMP      -0.5537
      4 O5'         0.8830   41.5766   49.9370 O.3         1 XMP      -0.2734
      5 O3P         0.9461   42.2370   52.2483 O.co2       1 XMP      -0.5537
      6 C5'         1.4336   41.4870   48.6032 C.3         1 XMP       0.1072
      7 C4'         1.0734   42.6850   47.6699 C.3         1 XMP       0.1182
      8 O4'         1.4070   42.3946   46.3003 O.3         1 XMP      -0.3363
      9 C1'         0.2561   41.8323   45.6200 C.3         1 XMP       0.2010
     10 N9          0.4756   40.4716   45.2153 N.pl3       1 XMP      -0.1896
     11 C4         -0.2357   39.7699   44.3085 C.2         1 XMP       0.2049
     12 N3         -1.3058   40.0783   43.4993 N.am        1 XMP      -0.1835
     13 N1         -1.2047   37.9527   42.5619 N.am        1 XMP      -0.1870
     14 C2         -1.7582   39.1674   42.6331 C.2         1 XMP       0.3214
     15 O2         -2.6708   39.4502   41.8739 O.2         1 XMP      -0.3846
     16 C6         -0.1744   37.5874   43.3277 C.2         1 XMP       0.1997
     17 O6          0.3108   36.4693   43.2383 O.2         1 XMP      -0.4080
     18 C5          0.3516   38.5064   44.2149 C.2         1 XMP       0.1084
     19 N7          1.4047   38.4542   45.0371 N.2         1 XMP      -0.3331
     20 C8          1.4655   39.6534   45.6447 C.2         1 XMP       0.0923
     21 C2'        -0.9564   42.0284   46.5656 C.3         1 XMP       0.1387
     22 O2'        -2.1336   42.4838   45.8988 O.3         1 XMP      -0.3836
     23 C3'        -0.4259   43.0445   47.5937 C.3         1 XMP       0.1149
     24 O3'        -0.5673   44.3881   47.1249 O.3         1 XMP      -0.3864
     25 H1          1.0237   40.5809   48.1582 H           1 XMP       0.0639
     26 H2          2.5200   41.3630   48.6170 H           1 XMP       0.0639
     27 H3          1.6509   43.5564   47.9724 H           1 XMP       0.0650
     28 H4          0.1218   42.4398   44.7235 H           1 XMP       0.0998
     29 H5         -1.7088   40.9587   43.5316 H           1 XMP       0.2360
     30 H6         -1.5532   37.3140   41.9178 H           1 XMP       0.2254
     31 H7          2.1853   39.9158   46.3232 H           1 XMP       0.1125
     32 H8         -1.2066   41.0930   47.0742 H           1 XMP       0.0676
     33 H9         -2.8077   42.5748   46.6079 H           1 XMP       0.2101
     34 H10        -0.9310   42.9420   48.5516 H           1 XMP       0.0648
     35 H11        -1.4670   44.4674   46.7327 H           1 XMP       0.2100
@<TRIPOS>BOND
     1     1     2  ar
     2     1     3  ar
     3     1     4   1
     4     1     5  ar
     5     4     6   1
     6     6     7   1
     7     7     8   1
     8     7    23   1
     9     8     9   1
    10     9    10   1
    11     9    21   1
    12    10    11   1
    13    10    20   1
    14    11    12  am
    15    11    18   2
    16    12    14  am
    17    14    13  am
    18    13    16  am
    19    14    15   2
    20    16    17   2
    21    16    18   1
    22    18    19   1
    23    19    20   2
    24    21    22   1
    25    21    23   1
    26    23    24   1
    27     6    25   1
    28     6    26   1
    29     7    27   1
    30     9    28   1
    31    12    29   1
    32    13    30   1
    33    20    31   1
    34    21    32   1
    35    22    33   1
    36    23    34   1
    37    24    35   1
@<TRIPOS>SUBSTRUCTURE
     1  XMP      6

