@<TRIPOS>MOLECULE
1lol_ligand_025
    35    37
SMALL
GAST_HUCK
****
This file was generated by PARSER (from files_GN.cpp)

@<TRIPOS>ATOM
      1 P           4.2539   45.4194   45.7166 P.3         1 XMP       0.2008
      2 O1P         4.6751   45.8143   44.3969 O.co2       1 XMP      -0.5537
      3 O2P         3.4679   44.2185   45.5896 O.co2       1 XMP      -0.5537
      4 O5'         3.6272   46.6702   46.4111 O.3         1 XMP      -0.2734
      5 O3P         5.4773   45.1132   46.4158 O.co2       1 XMP      -0.5537
      6 C5'         2.3038   46.5833   46.9904 C.3         1 XMP       0.1072
      7 C4'         2.2165   46.5401   48.5508 C.3         1 XMP       0.1182
      8 O4'         1.0893   45.7721   48.9901 O.3         1 XMP      -0.3363
      9 C1'         1.4972   44.4055   49.2164 C.3         1 XMP       0.2010
     10 N9          1.0003   43.4956   48.2102 N.pl3       1 XMP      -0.1896
     11 C4          1.2940   42.1836   48.0742 C.2         1 XMP       0.2049
     12 N3          2.1004   41.3294   48.7758 N.am        1 XMP      -0.1835
     13 N1          1.5503   39.5981   47.3260 N.am        1 XMP      -0.1870
     14 C2          2.2178   40.0546   48.3937 C.2         1 XMP       0.3214
     15 O2          2.9417   39.2977   49.0205 O.2         1 XMP      -0.3846
     16 C6          0.7445   40.3814   46.5996 C.2         1 XMP       0.1997
     17 O6          0.1723   39.9259   45.6244 O.2         1 XMP      -0.4080
     18 C5          0.5842   41.7049   46.9743 C.2         1 XMP       0.1084
     19 N7         -0.1597   42.6974   46.4767 N.2         1 XMP      -0.3331
     20 C8          0.0904   43.7689   47.2441 C.2         1 XMP       0.0923
     21 C2'         3.0415   44.4410   49.3916 C.3         1 XMP       0.1387
     22 O2'         3.4546   43.8237   50.6157 O.3         1 XMP      -0.3836
     23 C3'         3.3985   45.9359   49.3397 C.3         1 XMP       0.1149
     24 O3'         3.4674   46.4862   50.6630 O.3         1 XMP      -0.3864
     25 H1          1.7141   45.7907   46.5479 H           1 XMP       0.0639
     26 H2          1.7996   47.4977   46.6756 H           1 XMP       0.0639
     27 H3          2.0754   47.5672   48.9091 H           1 XMP       0.0650
     28 H4          1.0350   44.1042   50.1652 H           1 XMP       0.0998
     29 H5          2.5865   41.6471   49.5548 H           1 XMP       0.2360
     30 H6          1.6543   38.6679   47.0710 H           1 XMP       0.2254
     31 H7         -0.3675   44.6704   47.1045 H           1 XMP       0.1125
     32 H8          3.5408   43.9289   48.5672 H           1 XMP       0.0676
     33 H9          4.2578   44.3138   50.9051 H           1 XMP       0.2101
     34 H10         4.3642   46.1111   48.8530 H           1 XMP       0.0648
     35 H11         3.8235   47.3944   50.5549 H           1 XMP       0.2100
@<TRIPOS>BOND
     1     1     2  ar
     2     1     3  ar
     3     1     4   1
     4     1     5  ar
     5     4     6   1
     6     6     7   1
     7     7     8   1
     8     7    23   1
     9     8     9   1
    10     9    10   1
    11     9    21   1
    12    10    11   1
    13    10    20   1
    14    11    12  am
    15    11    18   2
    16    12    14  am
    17    14    13  am
    18    13    16  am
    19    14    15   2
    20    16    17   2
    21    16    18   1
    22    18    19   1
    23    19    20   2
    24    21    22   1
    25    21    23   1
    26    23    24   1
    27     6    25   1
    28     6    26   1
    29     7    27   1
    30     9    28   1
    31    12    29   1
    32    13    30   1
    33    20    31   1
    34    21    32   1
    35    22    33   1
    36    23    34   1
    37    24    35   1
@<TRIPOS>SUBSTRUCTURE
     1  XMP      6

