@<TRIPOS>MOLECULE
1lol_ligand_058
    35    37
SMALL
GAST_HUCK
****
This file was generated by PARSER (from files_GN.cpp)

@<TRIPOS>ATOM
      1 P          -5.2031   41.0864   46.3445 P.3         1 XMP       0.2008
      2 O1P        -6.3157   41.9821   46.5247 O.co2       1 XMP      -0.5537
      3 O2P        -5.0807   40.2403   47.4981 O.co2       1 XMP      -0.5537
      4 O5'        -3.8860   41.8439   45.9938 O.3         1 XMP      -0.2734
      5 O3P        -5.5184   40.2349   45.2226 O.co2       1 XMP      -0.5537
      6 C5'        -3.1407   42.3674   47.1060 C.3         1 XMP       0.1072
      7 C4'        -1.6700   42.6158   46.6824 C.3         1 XMP       0.1182
      8 O4'        -1.0410   43.5002   47.6235 O.3         1 XMP      -0.3363
      9 C1'         0.3513   43.1872   47.6450 C.3         1 XMP       0.2010
     10 N9          0.9650   43.7512   48.8082 N.pl3       1 XMP      -0.1896
     11 C4          1.9260   44.6924   48.8252 C.2         1 XMP       0.2049
     12 N3          2.5704   45.3783   47.8351 N.am        1 XMP      -0.1835
     13 N1          3.7330   46.5981   49.4349 N.am        1 XMP      -0.1870
     14 C2          3.4605   46.3213   48.1552 C.2         1 XMP       0.3214
     15 O2          4.0465   46.9198   47.2671 O.2         1 XMP      -0.3846
     16 C6          3.1387   45.9615   50.4487 C.2         1 XMP       0.1997
     17 O6          3.4290   46.2309   51.6065 O.2         1 XMP      -0.4080
     18 C5          2.1903   44.9847   50.1603 C.2         1 XMP       0.1084
     19 N7          1.4172   44.2189   50.9403 N.2         1 XMP      -0.3331
     20 C8          0.6630   43.4825   50.0991 C.2         1 XMP       0.0923
     21 C2'         0.3884   41.6538   47.5630 C.3         1 XMP       0.1387
     22 O2'         1.6555   41.1648   47.1352 O.3         1 XMP      -0.3836
     23 C3'        -0.7648   41.3501   46.5832 C.3         1 XMP       0.1149
     24 O3'        -0.3004   41.1804   45.2371 O.3         1 XMP      -0.3864
     25 H1         -3.1517   41.6807   47.9465 H           1 XMP       0.0639
     26 H2         -3.5666   43.3084   47.4466 H           1 XMP       0.0639
     27 H3         -1.6801   43.1446   45.7232 H           1 XMP       0.0650
     28 H4          0.7953   43.6020   46.7336 H           1 XMP       0.0998
     29 H5          2.3891   45.1846   46.9073 H           1 XMP       0.2360
     30 H6          4.3486   47.3267   49.6461 H           1 XMP       0.2254
     31 H7         -0.0418   42.8104   50.4069 H           1 XMP       0.1125
     32 H8          0.1540   41.2127   48.5328 H           1 XMP       0.0676
     33 H9          2.2842   41.4261   47.8383 H           1 XMP       0.2101
     34 H10        -1.2928   40.4322   46.8764 H           1 XMP       0.0648
     35 H11         0.2638   40.3781   45.2665 H           1 XMP       0.2100
@<TRIPOS>BOND
     1     1     2  ar
     2     1     3  ar
     3     1     4   1
     4     1     5  ar
     5     4     6   1
     6     6     7   1
     7     7     8   1
     8     7    23   1
     9     8     9   1
    10     9    10   1
    11     9    21   1
    12    10    11   1
    13    10    20   1
    14    11    12  am
    15    11    18   2
    16    12    14  am
    17    14    13  am
    18    13    16  am
    19    14    15   2
    20    16    17   2
    21    16    18   1
    22    18    19   1
    23    19    20   2
    24    21    22   1
    25    21    23   1
    26    23    24   1
    27     6    25   1
    28     6    26   1
    29     7    27   1
    30     9    28   1
    31    12    29   1
    32    13    30   1
    33    20    31   1
    34    21    32   1
    35    22    33   1
    36    23    34   1
    37    24    35   1
@<TRIPOS>SUBSTRUCTURE
     1  XMP      6

