@<TRIPOS>MOLECULE
1lol_ligand_086
    35    37
SMALL
GAST_HUCK
****
This file was generated by PARSER (from files_GN.cpp)

@<TRIPOS>ATOM
      1 P           5.6596   38.7735   44.5175 P.3         1 XMP       0.2008
      2 O1P         6.7574   38.3143   43.7062 O.co2       1 XMP      -0.5537
      3 O2P         4.4701   38.6386   43.7167 O.co2       1 XMP      -0.5537
      4 O5'         5.9730   40.2449   44.9170 O.3         1 XMP      -0.2734
      5 O3P         5.5924   37.8876   45.6533 O.co2       1 XMP      -0.5537
      6 C5'         5.0509   40.9230   45.7905 C.3         1 XMP       0.1072
      7 C4'         3.8165   41.5322   45.0737 C.3         1 XMP       0.1182
      8 O4'         3.0485   42.2760   46.0283 O.3         1 XMP      -0.3363
      9 C1'         2.3056   43.2419   45.2805 C.3         1 XMP       0.2010
     10 N9          1.7336   44.2210   46.1685 N.pl3       1 XMP      -0.1896
     11 C4          2.3711   45.0916   46.9764 C.2         1 XMP       0.2049
     12 N3          3.6973   45.3673   47.1930 N.am        1 XMP      -0.1835
     13 N1          3.1153   47.0598   48.6748 N.am        1 XMP      -0.1870
     14 C2          4.0465   46.3581   48.0092 C.2         1 XMP       0.3214
     15 O2          5.2238   46.6309   48.1391 O.2         1 XMP      -0.3846
     16 C6          1.8119   46.8047   48.5491 C.2         1 XMP       0.1997
     17 O6          0.9951   47.4534   49.1863 O.2         1 XMP      -0.4080
     18 C5          1.4017   45.8073   47.6744 C.2         1 XMP       0.1084
     19 N7          0.1915   45.3644   47.3137 N.2         1 XMP      -0.3331
     20 C8          0.4110   44.3998   46.3955 C.2         1 XMP       0.0923
     21 C2'         3.3068   43.7605   44.2292 C.3         1 XMP       0.1387
     22 O2'         2.6591   44.3607   43.1098 O.3         1 XMP      -0.3836
     23 C3'         4.1456   42.5039   43.9045 C.3         1 XMP       0.1149
     24 O3'         3.7855   41.9168   42.6545 O.3         1 XMP      -0.3864
     25 H1          5.6005   41.7538   46.2411 H           1 XMP       0.0639
     26 H2          4.7135   40.2842   46.6162 H           1 XMP       0.0639
     27 H3          3.1792   40.7115   44.7138 H           1 XMP       0.0650
     28 H4          1.4957   42.7124   44.7549 H           1 XMP       0.0998
     29 H5          4.3841   44.8539   46.7343 H           1 XMP       0.2360
     30 H6          3.4038   47.7697   49.2691 H           1 XMP       0.2254
     31 H7         -0.3426   43.8721   45.9474 H           1 XMP       0.1125
     32 H8          3.9667   44.5143   44.6749 H           1 XMP       0.0676
     33 H9          3.3908   44.7013   42.5522 H           1 XMP       0.2101
     34 H10         5.2093   42.7620   43.8780 H           1 XMP       0.0648
     35 H11         3.9946   42.5913   41.9768 H           1 XMP       0.2100
@<TRIPOS>BOND
     1     1     2  ar
     2     1     3  ar
     3     1     4   1
     4     1     5  ar
     5     4     6   1
     6     6     7   1
     7     7     8   1
     8     7    23   1
     9     8     9   1
    10     9    10   1
    11     9    21   1
    12    10    11   1
    13    10    20   1
    14    11    12  am
    15    11    18   2
    16    12    14  am
    17    14    13  am
    18    13    16  am
    19    14    15   2
    20    16    17   2
    21    16    18   1
    22    18    19   1
    23    19    20   2
    24    21    22   1
    25    21    23   1
    26    23    24   1
    27     6    25   1
    28     6    26   1
    29     7    27   1
    30     9    28   1
    31    12    29   1
    32    13    30   1
    33    20    31   1
    34    21    32   1
    35    22    33   1
    36    23    34   1
    37    24    35   1
@<TRIPOS>SUBSTRUCTURE
     1  XMP      6

