@<TRIPOS>MOLECULE
1lol_ligand_027
    35    37
SMALL
GAST_HUCK
****
This file was generated by PARSER (from files_GN.cpp)

@<TRIPOS>ATOM
      1 P           4.6251   35.5290   43.8077 P.3         1 XMP       0.2008
      2 O1P         3.9604   35.8602   42.5726 O.co2       1 XMP      -0.5537
      3 O2P         4.9584   34.1300   43.7475 O.co2       1 XMP      -0.5537
      4 O5'         3.6960   35.7674   45.0353 O.3         1 XMP      -0.2734
      5 O3P         5.8785   36.2342   43.8928 O.co2       1 XMP      -0.5537
      6 C5'         3.1225   37.0800   45.2155 C.3         1 XMP       0.1072
      7 C4'         4.1207   38.1241   45.7915 C.3         1 XMP       0.1182
      8 O4'         3.5841   39.4522   45.7228 O.3         1 XMP      -0.3363
      9 C1'         3.1125   39.8638   47.0182 C.3         1 XMP       0.2010
     10 N9          1.7204   40.2429   47.0000 N.pl3       1 XMP      -0.1896
     11 C4          0.9229   40.4364   45.9334 C.2         1 XMP       0.2049
     12 N3          1.1229   40.3210   44.5802 N.am        1 XMP      -0.1835
     13 N1         -1.0304   41.0845   44.1812 N.am        1 XMP      -0.1870
     14 C2          0.1478   40.6410   43.7313 C.2         1 XMP       0.3214
     15 O2          0.3396   40.5325   42.5312 O.2         1 XMP      -0.3846
     16 C6         -1.2914   41.2220   45.4855 C.2         1 XMP       0.1997
     17 O6         -2.3685   41.6701   45.8469 O.2         1 XMP      -0.4080
     18 C5         -0.3068   40.8925   46.4034 C.2         1 XMP       0.1084
     19 N7         -0.2509   40.9683   47.7390 N.2         1 XMP      -0.3331
     20 C8          0.9864   40.5759   48.0858 C.2         1 XMP       0.0923
     21 C2'         3.4630   38.7294   48.0119 C.3         1 XMP       0.1387
     22 O2'         3.9593   39.2399   49.2421 O.3         1 XMP      -0.3836
     23 C3'         4.5028   37.8817   47.2672 C.3         1 XMP       0.1149
     24 O3'         5.8457   38.3120   47.5163 O.3         1 XMP      -0.3864
     25 H1          2.3004   36.9631   45.9367 H           1 XMP       0.0639
     26 H2          2.6604   37.4586   44.2991 H           1 XMP       0.0639
     27 H3          5.0176   38.1337   45.1713 H           1 XMP       0.0650
     28 H4          3.6900   40.7498   47.2749 H           1 XMP       0.0998
     29 H5          1.9791   40.0187   44.2444 H           1 XMP       0.2360
     30 H6         -1.7201   41.3356   43.5402 H           1 XMP       0.2254
     31 H7          1.3172   40.5487   49.0522 H           1 XMP       0.1125
     32 H8          2.5809   38.1135   48.2175 H           1 XMP       0.0676
     33 H9          4.5866   38.5650   49.5705 H           1 XMP       0.2101
     34 H10         4.4324   36.8264   47.5444 H           1 XMP       0.0648
     35 H11         5.9918   39.0795   46.9159 H           1 XMP       0.2100
@<TRIPOS>BOND
     1     1     2  ar
     2     1     3  ar
     3     1     4   1
     4     1     5  ar
     5     4     6   1
     6     6     7   1
     7     7     8   1
     8     7    23   1
     9     8     9   1
    10     9    10   1
    11     9    21   1
    12    10    11   1
    13    10    20   1
    14    11    12  am
    15    11    18   2
    16    12    14  am
    17    14    13  am
    18    13    16  am
    19    14    15   2
    20    16    17   2
    21    16    18   1
    22    18    19   1
    23    19    20   2
    24    21    22   1
    25    21    23   1
    26    23    24   1
    27     6    25   1
    28     6    26   1
    29     7    27   1
    30     9    28   1
    31    12    29   1
    32    13    30   1
    33    20    31   1
    34    21    32   1
    35    22    33   1
    36    23    34   1
    37    24    35   1
@<TRIPOS>SUBSTRUCTURE
     1  XMP      6

