@<TRIPOS>MOLECULE
1lol_ligand_037
    35    37
SMALL
GAST_HUCK
****
This file was generated by PARSER (from files_GN.cpp)

@<TRIPOS>ATOM
      1 P           0.7453   42.9210   49.2844 P.3         1 XMP       0.2008
      2 O1P        -0.4454   43.3875   48.6226 O.co2       1 XMP      -0.5537
      3 O2P         0.3140   42.2643   50.4906 O.co2       1 XMP      -0.5537
      4 O5'         1.5683   44.2067   49.5898 O.3         1 XMP      -0.2734
      5 O3P         1.3940   41.9794   48.4108 O.co2       1 XMP      -0.5537
      6 C5'         2.9398   44.1125   50.0269 C.3         1 XMP       0.1072
      7 C4'         3.9175   44.6038   48.9232 C.3         1 XMP       0.1182
      8 O4'         3.9944   43.6387   47.8626 O.3         1 XMP      -0.3363
      9 C1'         4.2500   44.3487   46.6413 C.3         1 XMP       0.2010
     10 N9          3.9234   43.5445   45.4955 N.pl3       1 XMP      -0.1896
     11 C4          4.6265   43.4260   44.3539 C.2         1 XMP       0.2049
     12 N3          5.7843   44.0102   43.9078 N.am        1 XMP      -0.1835
     13 N1          5.5892   42.8571   41.8975 N.am        1 XMP      -0.1870
     14 C2          6.2416   43.7182   42.6886 C.2         1 XMP       0.3214
     15 O2          7.2681   44.2429   42.2869 O.2         1 XMP      -0.3846
     16 C6          4.4620   42.2502   42.2789 C.2         1 XMP       0.1997
     17 O6          3.9123   41.4492   41.5373 O.2         1 XMP      -0.4080
     18 C5          3.9425   42.5322   43.5323 C.2         1 XMP       0.1084
     19 N7          2.8395   42.1189   44.1676 N.2         1 XMP      -0.3331
     20 C8          2.8399   42.7473   45.3585 C.2         1 XMP       0.0923
     21 C2'         3.3962   45.6218   46.7777 C.3         1 XMP       0.1387
     22 O2'         3.8223   46.6757   45.9145 O.3         1 XMP      -0.3836
     23 C3'         3.5339   45.9670   48.2715 C.3         1 XMP       0.1149
     24 O3'         4.5437   46.9579   48.4891 O.3         1 XMP      -0.3864
     25 H1          3.2241   43.1109   50.3698 H           1 XMP       0.0639
     26 H2          3.0430   44.7783   50.8867 H           1 XMP       0.0639
     27 H3          4.9188   44.6751   49.3654 H           1 XMP       0.0650
     28 H4          5.3113   44.6246   46.6101 H           1 XMP       0.0998
     29 H5          6.2615   44.6458   44.4672 H           1 XMP       0.2360
     30 H6          5.9474   42.6654   41.0166 H           1 XMP       0.2254
     31 H7          2.1070   42.6240   46.0548 H           1 XMP       0.1125
     32 H8          2.3480   45.3919   46.5595 H           1 XMP       0.0676
     33 H9          3.3544   46.5296   45.0653 H           1 XMP       0.2101
     34 H10         2.5855   46.3655   48.6432 H           1 XMP       0.0648
     35 H11         4.2304   47.5046   49.2445 H           1 XMP       0.2100
@<TRIPOS>BOND
     1     1     2  ar
     2     1     3  ar
     3     1     4   1
     4     1     5  ar
     5     4     6   1
     6     6     7   1
     7     7     8   1
     8     7    23   1
     9     8     9   1
    10     9    10   1
    11     9    21   1
    12    10    11   1
    13    10    20   1
    14    11    12  am
    15    11    18   2
    16    12    14  am
    17    14    13  am
    18    13    16  am
    19    14    15   2
    20    16    17   2
    21    16    18   1
    22    18    19   1
    23    19    20   2
    24    21    22   1
    25    21    23   1
    26    23    24   1
    27     6    25   1
    28     6    26   1
    29     7    27   1
    30     9    28   1
    31    12    29   1
    32    13    30   1
    33    20    31   1
    34    21    32   1
    35    22    33   1
    36    23    34   1
    37    24    35   1
@<TRIPOS>SUBSTRUCTURE
     1  XMP      6

