@<TRIPOS>MOLECULE
1lol_ligand_078
    35    37
SMALL
GAST_HUCK
****
This file was generated by PARSER (from files_GN.cpp)

@<TRIPOS>ATOM
      1 P           5.7027   43.5226   43.3086 P.3         1 XMP       0.2008
      2 O1P         6.8172   42.6676   43.6643 O.co2       1 XMP      -0.5537
      3 O2P         6.2185   44.4845   42.3687 O.co2       1 XMP      -0.5537
      4 O5'         5.2763   44.0558   44.7034 O.3         1 XMP      -0.2734
      5 O3P         4.7284   42.6413   42.6914 O.co2       1 XMP      -0.5537
      6 C5'         4.9877   45.4602   44.8852 C.3         1 XMP       0.1072
      7 C4'         3.4714   45.8416   44.9335 C.3         1 XMP       0.1182
      8 O4'         2.6626   44.6560   44.9634 O.3         1 XMP      -0.3363
      9 C1'         1.9985   44.5495   46.2298 C.3         1 XMP       0.2010
     10 N9          2.0376   43.1823   46.6482 N.pl3       1 XMP      -0.1896
     11 C4          1.0295   42.2978   46.5714 C.2         1 XMP       0.2049
     12 N3         -0.2678   42.4126   46.1434 N.am        1 XMP      -0.1835
     13 N1         -0.5770   40.1403   46.4949 N.am        1 XMP      -0.1870
     14 C2         -1.0488   41.3293   46.1058 C.2         1 XMP       0.3214
     15 O2         -2.1978   41.4346   45.7049 O.2         1 XMP      -0.3846
     16 C6          0.6744   39.9648   46.9243 C.2         1 XMP       0.1997
     17 O6          1.0693   38.8571   47.2479 O.2         1 XMP      -0.4080
     18 C5          1.5286   41.0596   46.9615 C.2         1 XMP       0.1084
     19 N7          2.8267   41.1931   47.2598 N.2         1 XMP      -0.3331
     20 C8          3.1269   42.4860   47.0584 C.2         1 XMP       0.0923
     21 C2'         2.6632   45.5755   47.1710 C.3         1 XMP       0.1387
     22 O2'         1.8009   46.0346   48.2134 O.3         1 XMP      -0.3836
     23 C3'         3.0616   46.6756   46.1736 C.3         1 XMP       0.1149
     24 O3'         1.9448   47.5249   45.9005 O.3         1 XMP      -0.3864
     25 H1          5.5144   46.0806   44.1497 H           1 XMP       0.0639
     26 H2          5.4452   45.6869   45.8518 H           1 XMP       0.0639
     27 H3          3.2250   46.3835   44.0173 H           1 XMP       0.0650
     28 H4          0.9605   44.8622   46.0754 H           1 XMP       0.0998
     29 H5         -0.6131   43.2696   45.8481 H           1 XMP       0.2360
     30 H6         -1.1631   39.3670   46.4461 H           1 XMP       0.2254
     31 H7          4.0624   42.8751   47.1701 H           1 XMP       0.1125
     32 H8          3.5637   45.1490   47.6339 H           1 XMP       0.0676
     33 H9          2.1826   46.8990   48.4888 H           1 XMP       0.2101
     34 H10         3.8669   47.2946   46.5741 H           1 XMP       0.0648
     35 H11         2.2164   48.1194   45.1725 H           1 XMP       0.2100
@<TRIPOS>BOND
     1     1     2  ar
     2     1     3  ar
     3     1     4   1
     4     1     5  ar
     5     4     6   1
     6     6     7   1
     7     7     8   1
     8     7    23   1
     9     8     9   1
    10     9    10   1
    11     9    21   1
    12    10    11   1
    13    10    20   1
    14    11    12  am
    15    11    18   2
    16    12    14  am
    17    14    13  am
    18    13    16  am
    19    14    15   2
    20    16    17   2
    21    16    18   1
    22    18    19   1
    23    19    20   2
    24    21    22   1
    25    21    23   1
    26    23    24   1
    27     6    25   1
    28     6    26   1
    29     7    27   1
    30     9    28   1
    31    12    29   1
    32    13    30   1
    33    20    31   1
    34    21    32   1
    35    22    33   1
    36    23    34   1
    37    24    35   1
@<TRIPOS>SUBSTRUCTURE
     1  XMP      6

