@<TRIPOS>MOLECULE
1lol_ligand_061
    35    37
SMALL
GAST_HUCK
****
This file was generated by PARSER (from files_GN.cpp)

@<TRIPOS>ATOM
      1 P           2.9520   37.2902   45.3234 P.3         1 XMP       0.2008
      2 O1P         2.1765   38.0282   46.2865 O.co2       1 XMP      -0.5537
      3 O2P         3.9826   36.5335   45.9874 O.co2       1 XMP      -0.5537
      4 O5'         3.5008   38.2337   44.2138 O.3         1 XMP      -0.2734
      5 O3P         2.0743   36.3438   44.6858 O.co2       1 XMP      -0.5537
      6 C5'         4.5577   39.1332   44.5995 C.3         1 XMP       0.1072
      7 C4'         4.7779   40.1454   43.4452 C.3         1 XMP       0.1182
      8 O4'         3.5865   40.9176   43.2315 O.3         1 XMP      -0.3363
      9 C1'         3.7221   42.2097   43.8574 C.3         1 XMP       0.2010
     10 N9          2.6803   42.4798   44.8147 N.pl3       1 XMP      -0.1896
     11 C4          2.5012   43.6306   45.4887 C.2         1 XMP       0.2049
     12 N3          3.2059   44.8026   45.5098 N.am        1 XMP      -0.1835
     13 N1          1.7346   45.6632   47.0864 N.am        1 XMP      -0.1870
     14 C2          2.8227   45.7917   46.3168 C.2         1 XMP       0.3214
     15 O2          3.4889   46.8142   46.3510 O.2         1 XMP      -0.3846
     16 C6          0.9934   44.5499   47.0967 C.2         1 XMP       0.1997
     17 O6          0.0011   44.4777   47.8069 O.2         1 XMP      -0.4080
     18 C5          1.3726   43.4858   46.2907 C.2         1 XMP       0.1084
     19 N7          0.8717   42.2584   46.0986 N.2         1 XMP      -0.3331
     20 C8          1.6749   41.6595   45.1989 C.2         1 XMP       0.0923
     21 C2'         5.1532   42.2855   44.4496 C.3         1 XMP       0.1387
     22 O2'         5.7695   43.5641   44.2966 O.3         1 XMP      -0.3836
     23 C3'         5.9002   41.1694   43.7062 C.3         1 XMP       0.1149
     24 O3'         6.4626   41.6293   42.4742 O.3         1 XMP      -0.3864
     25 H1          5.4815   38.5694   44.7615 H           1 XMP       0.0639
     26 H2          4.3137   39.6801   45.5157 H           1 XMP       0.0639
     27 H3          4.9970   39.5791   42.5357 H           1 XMP       0.0650
     28 H4          3.6295   42.9433   43.0510 H           1 XMP       0.0998
     29 H5          3.9907   44.9094   44.9508 H           1 XMP       0.2360
     30 H6          1.4764   46.4037   47.6593 H           1 XMP       0.2254
     31 H7          1.5250   40.7071   44.8607 H           1 XMP       0.1125
     32 H8          5.1334   42.0515   45.5183 H           1 XMP       0.0676
     33 H9          5.7396   43.7602   43.3365 H           1 XMP       0.2101
     34 H10         6.7057   40.7502   44.3143 H           1 XMP       0.0648
     35 H11         5.7126   41.9897   41.9554 H           1 XMP       0.2100
@<TRIPOS>BOND
     1     1     2  ar
     2     1     3  ar
     3     1     4   1
     4     1     5  ar
     5     4     6   1
     6     6     7   1
     7     7     8   1
     8     7    23   1
     9     8     9   1
    10     9    10   1
    11     9    21   1
    12    10    11   1
    13    10    20   1
    14    11    12  am
    15    11    18   2
    16    12    14  am
    17    14    13  am
    18    13    16  am
    19    14    15   2
    20    16    17   2
    21    16    18   1
    22    18    19   1
    23    19    20   2
    24    21    22   1
    25    21    23   1
    26    23    24   1
    27     6    25   1
    28     6    26   1
    29     7    27   1
    30     9    28   1
    31    12    29   1
    32    13    30   1
    33    20    31   1
    34    21    32   1
    35    22    33   1
    36    23    34   1
    37    24    35   1
@<TRIPOS>SUBSTRUCTURE
     1  XMP      6

