@<TRIPOS>MOLECULE
1lol_ligand_064
    35    37
SMALL
GAST_HUCK
****
This file was generated by PARSER (from files_GN.cpp)

@<TRIPOS>ATOM
      1 P           4.3702   35.5933   43.4515 P.3         1 XMP       0.2008
      2 O1P         4.8873   34.2702   43.7024 O.co2       1 XMP      -0.5537
      3 O2P         5.3964   36.6019   43.6141 O.co2       1 XMP      -0.5537
      4 O5'         3.0773   35.8097   44.2899 O.3         1 XMP      -0.2734
      5 O3P         4.0207   35.6448   42.0548 O.co2       1 XMP      -0.5537
      6 C5'         2.9604   36.9962   45.0964 C.3         1 XMP       0.1072
      7 C4'         3.9660   37.0849   46.2977 C.3         1 XMP       0.1182
      8 O4'         4.9729   36.0670   46.2412 O.3         1 XMP      -0.3363
      9 C1'         6.2455   36.6593   46.5635 C.3         1 XMP       0.2010
     10 N9          7.3407   35.8973   46.0356 N.pl3       1 XMP      -0.1896
     11 C4          8.2064   35.1370   46.7312 C.2         1 XMP       0.2049
     12 N3          8.3670   34.9064   48.0758 N.am        1 XMP      -0.1835
     13 N1         10.1826   33.5238   47.6210 N.am        1 XMP      -0.1870
     14 C2          9.3377   34.0900   48.4918 C.2         1 XMP       0.3214
     15 O2          9.4698   33.8547   49.6810 O.2         1 XMP      -0.3846
     16 C6         10.0913   33.7275   46.3054 C.2         1 XMP       0.1997
     17 O6         10.8775   33.1979   45.5337 O.2         1 XMP      -0.4080
     18 C5          9.0920   34.5566   45.8227 C.2         1 XMP       0.1084
     19 N7          8.7528   34.9539   44.5903 N.2         1 XMP      -0.3331
     20 C8          7.6876   35.7619   44.7415 C.2         1 XMP       0.0923
     21 C2'         6.1351   38.1049   46.0428 C.3         1 XMP       0.1387
     22 O2'         7.0714   39.0057   46.6360 O.3         1 XMP      -0.3836
     23 C3'         4.6867   38.4619   46.4018 C.3         1 XMP       0.1149
     24 O3'         4.5721   39.0247   47.7110 O.3         1 XMP      -0.3864
     25 H1          1.9477   36.9675   45.5263 H           1 XMP       0.0639
     26 H2          3.0000   37.9034   44.4689 H           1 XMP       0.0639
     27 H3          3.4000   36.9061   47.2243 H           1 XMP       0.0650
     28 H4          6.3147   36.6986   47.6655 H           1 XMP       0.0998
     29 H5          7.7606   35.3032   48.7186 H           1 XMP       0.2360
     30 H6         10.8878   32.9417   47.9440 H           1 XMP       0.2254
     31 H7          7.2311   36.2159   43.9650 H           1 XMP       0.1125
     32 H8          6.2680   38.1338   44.9576 H           1 XMP       0.0676
     33 H9          7.8932   38.4936   46.7362 H           1 XMP       0.2101
     34 H10         4.2970   39.2103   45.7051 H           1 XMP       0.0648
     35 H11         4.8985   38.3278   48.3331 H           1 XMP       0.2100
@<TRIPOS>BOND
     1     1     2  ar
     2     1     3  ar
     3     1     4   1
     4     1     5  ar
     5     4     6   1
     6     6     7   1
     7     7     8   1
     8     7    23   1
     9     8     9   1
    10     9    10   1
    11     9    21   1
    12    10    11   1
    13    10    20   1
    14    11    12  am
    15    11    18   2
    16    12    14  am
    17    14    13  am
    18    13    16  am
    19    14    15   2
    20    16    17   2
    21    16    18   1
    22    18    19   1
    23    19    20   2
    24    21    22   1
    25    21    23   1
    26    23    24   1
    27     6    25   1
    28     6    26   1
    29     7    27   1
    30     9    28   1
    31    12    29   1
    32    13    30   1
    33    20    31   1
    34    21    32   1
    35    22    33   1
    36    23    34   1
    37    24    35   1
@<TRIPOS>SUBSTRUCTURE
     1  XMP      6

