@<TRIPOS>MOLECULE
1lol_ligand_076
    35    37
SMALL
GAST_HUCK
****
This file was generated by PARSER (from files_GN.cpp)

@<TRIPOS>ATOM
      1 P           4.4255   44.6914   45.2058 P.3         1 XMP       0.2008
      2 O1P         5.3820   44.9961   46.2467 O.co2       1 XMP      -0.5537
      3 O2P         3.0850   45.0226   45.6287 O.co2       1 XMP      -0.5537
      4 O5'         4.5863   43.2507   44.6029 O.3         1 XMP      -0.2734
      5 O3P         4.7213   45.6044   44.1230 O.co2       1 XMP      -0.5537
      6 C5'         3.5269   42.2820   44.7501 C.3         1 XMP       0.1072
      7 C4'         3.6396   41.3726   46.0066 C.3         1 XMP       0.1182
      8 O4'         3.5327   42.1677   47.2079 O.3         1 XMP      -0.3363
      9 C1'         2.2911   41.8895   47.8872 C.3         1 XMP       0.2010
     10 N9          1.6473   43.0949   48.3273 N.pl3       1 XMP      -0.1896
     11 C4          2.2350   44.2891   48.5280 C.2         1 XMP       0.2049
     12 N3          3.5227   44.7186   48.3575 N.am        1 XMP      -0.1835
     13 N1          2.8890   46.8787   48.9326 N.am        1 XMP      -0.1870
     14 C2          3.8254   46.0022   48.5455 C.2         1 XMP       0.3214
     15 O2          4.9659   46.3647   48.3023 O.2         1 XMP      -0.3846
     16 C6          1.6186   46.5182   49.1321 C.2         1 XMP       0.1997
     17 O6          0.7916   47.3524   49.4607 O.2         1 XMP      -0.4080
     18 C5          1.2511   45.1953   48.9250 C.2         1 XMP       0.1084
     19 N7          0.0801   44.5441   48.9959 N.2         1 XMP      -0.3331
     20 C8          0.3422   43.2670   48.6492 C.2         1 XMP       0.0923
     21 C2'         1.4562   41.0116   46.9286 C.3         1 XMP       0.1387
     22 O2'         0.5605   40.1327   47.6236 O.3         1 XMP      -0.3836
     23 C3'         2.5314   40.2981   46.1020 C.3         1 XMP       0.1149
     24 O3'         3.0093   39.1250   46.7607 O.3         1 XMP      -0.3864
     25 H1          3.6242   41.6356   43.8723 H           1 XMP       0.0639
     26 H2          2.5416   42.7464   44.6890 H           1 XMP       0.0639
     27 H3          4.6256   40.8986   45.9914 H           1 XMP       0.0650
     28 H4          2.5398   41.3054   48.7790 H           1 XMP       0.0998
     29 H5          4.2073   44.0960   48.0899 H           1 XMP       0.2360
     30 H6          3.1483   47.8016   49.0790 H           1 XMP       0.2254
     31 H7         -0.3761   42.5392   48.6253 H           1 XMP       0.1125
     32 H8          0.8576   41.6447   46.2637 H           1 XMP       0.0676
     33 H9          1.1237   39.4030   47.9707 H           1 XMP       0.2101
     34 H10         2.1480   40.0054   45.1234 H           1 XMP       0.0648
     35 H11         3.4444   39.4296   47.5809 H           1 XMP       0.2100
@<TRIPOS>BOND
     1     1     2  ar
     2     1     3  ar
     3     1     4   1
     4     1     5  ar
     5     4     6   1
     6     6     7   1
     7     7     8   1
     8     7    23   1
     9     8     9   1
    10     9    10   1
    11     9    21   1
    12    10    11   1
    13    10    20   1
    14    11    12  am
    15    11    18   2
    16    12    14  am
    17    14    13  am
    18    13    16  am
    19    14    15   2
    20    16    17   2
    21    16    18   1
    22    18    19   1
    23    19    20   2
    24    21    22   1
    25    21    23   1
    26    23    24   1
    27     6    25   1
    28     6    26   1
    29     7    27   1
    30     9    28   1
    31    12    29   1
    32    13    30   1
    33    20    31   1
    34    21    32   1
    35    22    33   1
    36    23    34   1
    37    24    35   1
@<TRIPOS>SUBSTRUCTURE
     1  XMP      6

