@<TRIPOS>MOLECULE
1lol_ligand_033
    35    37
SMALL
GAST_HUCK
****
This file was generated by PARSER (from files_GN.cpp)

@<TRIPOS>ATOM
      1 P          -0.4894   42.2307   46.4020 P.3         1 XMP       0.2008
      2 O1P         0.6142   41.8898   45.5451 O.co2       1 XMP      -0.5537
      3 O2P        -1.6931   42.3322   45.6178 O.co2       1 XMP      -0.5537
      4 O5'        -0.3110   43.5237   47.2558 O.3         1 XMP      -0.2734
      5 O3P        -0.6768   41.1271   47.3106 O.co2       1 XMP      -0.5537
      6 C5'         0.3224   44.6708   46.6532 C.3         1 XMP       0.1072
      7 C4'         1.8577   44.4841   46.4370 C.3         1 XMP       0.1182
      8 O4'         2.1730   44.1261   45.0756 O.3         1 XMP      -0.3363
      9 C1'         3.5892   44.3189   44.9244 C.3         1 XMP       0.2010
     10 N9          3.9654   44.3945   43.5382 N.pl3       1 XMP      -0.1896
     11 C4          5.0167   43.7893   42.9586 C.2         1 XMP       0.2049
     12 N3          6.0013   42.9804   43.4567 N.am        1 XMP      -0.1835
     13 N1          6.9656   42.8548   41.3488 N.am        1 XMP      -0.1870
     14 C2          6.9596   42.5308   42.6457 C.2         1 XMP       0.3214
     15 O2          7.8404   41.8113   43.0940 O.2         1 XMP      -0.3846
     16 C6          6.0311   43.6418   40.8043 C.2         1 XMP       0.1997
     17 O6          6.0827   43.9173   39.6163 O.2         1 XMP      -0.4080
     18 C5          5.0201   44.1410   41.6109 C.2         1 XMP       0.1084
     19 N7          3.9792   44.9524   41.3799 N.2         1 XMP      -0.3331
     20 C8          3.3434   45.0947   42.5634 C.2         1 XMP       0.0923
     21 C2'         3.9208   45.6051   45.7241 C.3         1 XMP       0.1387
     22 O2'         5.1834   45.5248   46.3941 O.3         1 XMP      -0.3836
     23 C3'         2.7231   45.7400   46.6948 C.3         1 XMP       0.1149
     24 O3'         3.1076   45.8464   48.0670 O.3         1 XMP      -0.3864
     25 H1          0.1615   45.4878   47.3627 H           1 XMP       0.0639
     26 H2         -0.1703   44.9741   45.7250 H           1 XMP       0.0639
     27 H3          2.2078   43.6788   47.0933 H           1 XMP       0.0650
     28 H4          4.0914   43.4611   45.3920 H           1 XMP       0.0998
     29 H5          6.0033   42.7378   44.3963 H           1 XMP       0.2360
     30 H6          7.6751   42.5116   40.7833 H           1 XMP       0.2254
     31 H7          2.5084   45.6660   42.6844 H           1 XMP       0.1125
     32 H8          3.9511   46.4747   45.0615 H           1 XMP       0.0676
     33 H9          5.8628   45.7926   45.7294 H           1 XMP       0.2101
     34 H10         2.1670   46.6458   46.4279 H           1 XMP       0.0648
     35 H11         3.6725   45.0628   48.2440 H           1 XMP       0.2100
@<TRIPOS>BOND
     1     1     2  ar
     2     1     3  ar
     3     1     4   1
     4     1     5  ar
     5     4     6   1
     6     6     7   1
     7     7     8   1
     8     7    23   1
     9     8     9   1
    10     9    10   1
    11     9    21   1
    12    10    11   1
    13    10    20   1
    14    11    12  am
    15    11    18   2
    16    12    14  am
    17    14    13  am
    18    13    16  am
    19    14    15   2
    20    16    17   2
    21    16    18   1
    22    18    19   1
    23    19    20   2
    24    21    22   1
    25    21    23   1
    26    23    24   1
    27     6    25   1
    28     6    26   1
    29     7    27   1
    30     9    28   1
    31    12    29   1
    32    13    30   1
    33    20    31   1
    34    21    32   1
    35    22    33   1
    36    23    34   1
    37    24    35   1
@<TRIPOS>SUBSTRUCTURE
     1  XMP      6

