@<TRIPOS>MOLECULE
1lol_ligand_006
    35    37
SMALL
GAST_HUCK
****
This file was generated by PARSER (from files_GN.cpp)

@<TRIPOS>ATOM
      1 P           3.1659   37.1765   45.0483 P.3         1 XMP       0.2008
      2 O1P         4.5748   36.8805   45.1360 O.co2       1 XMP      -0.5537
      3 O2P         2.6062   36.2732   44.0743 O.co2       1 XMP      -0.5537
      4 O5'         2.9265   38.6243   44.5294 O.3         1 XMP      -0.2734
      5 O3P         2.5282   36.8920   46.3088 O.co2       1 XMP      -0.5537
      6 C5'         3.2049   39.7149   45.4356 C.3         1 XMP       0.1072
      7 C4'         2.1851   39.8761   46.5969 C.3         1 XMP       0.1182
      8 O4'         2.7097   40.7817   47.5731 O.3         1 XMP      -0.3363
      9 C1'         2.0323   42.0495   47.4996 C.3         1 XMP       0.2010
     10 N9          2.9768   43.1251   47.3795 N.pl3       1 XMP      -0.1896
     11 C4          2.8797   44.3521   47.9251 C.2         1 XMP       0.2049
     12 N3          1.9083   44.9651   48.6700 N.am        1 XMP      -0.1835
     13 N1          3.2250   46.8748   48.8224 N.am        1 XMP      -0.1870
     14 C2          2.0939   46.2138   49.1007 C.2         1 XMP       0.3214
     15 O2          1.2232   46.7627   49.7614 O.2         1 XMP      -0.3846
     16 C6          4.2063   46.3286   48.0985 C.2         1 XMP       0.1997
     17 O6          5.2309   46.9532   47.8671 O.2         1 XMP      -0.4080
     18 C5          4.0464   45.0430   47.6146 C.2         1 XMP       0.1084
     19 N7          4.8342   44.2501   46.8796 N.2         1 XMP      -0.3331
     20 C8          4.1654   43.0931   46.7342 C.2         1 XMP       0.0923
     21 C2'         1.0199   41.9659   46.3371 C.3         1 XMP       0.1387
     22 O2'        -0.2024   42.6592   46.6136 O.3         1 XMP      -0.3836
     23 C3'         0.8191   40.4474   46.1697 C.3         1 XMP       0.1149
     24 O3'        -0.2195   39.9627   47.0340 O.3         1 XMP      -0.3864
     25 H1          3.1853   40.6193   44.8173 H           1 XMP       0.0639
     26 H2          4.2203   39.6512   45.8391 H           1 XMP       0.0639
     27 H3          2.0507   38.9066   47.0724 H           1 XMP       0.0650
     28 H4          1.4799   42.1466   48.4401 H           1 XMP       0.0998
     29 H5          1.0910   44.4926   48.8884 H           1 XMP       0.2360
     30 H6          3.3498   47.7728   49.1807 H           1 XMP       0.2254
     31 H7          4.5428   42.2925   46.2282 H           1 XMP       0.1125
     32 H8          1.4522   42.3795   45.4187 H           1 XMP       0.0676
     33 H9          0.0335   43.6102   46.5715 H           1 XMP       0.2101
     34 H10         0.5477   40.2030   45.1324 H           1 XMP       0.0648
     35 H11        -0.6277   39.2018   46.5586 H           1 XMP       0.2100
@<TRIPOS>BOND
     1     1     2  ar
     2     1     3  ar
     3     1     4   1
     4     1     5  ar
     5     4     6   1
     6     6     7   1
     7     7     8   1
     8     7    23   1
     9     8     9   1
    10     9    10   1
    11     9    21   1
    12    10    11   1
    13    10    20   1
    14    11    12  am
    15    11    18   2
    16    12    14  am
    17    14    13  am
    18    13    16  am
    19    14    15   2
    20    16    17   2
    21    16    18   1
    22    18    19   1
    23    19    20   2
    24    21    22   1
    25    21    23   1
    26    23    24   1
    27     6    25   1
    28     6    26   1
    29     7    27   1
    30     9    28   1
    31    12    29   1
    32    13    30   1
    33    20    31   1
    34    21    32   1
    35    22    33   1
    36    23    34   1
    37    24    35   1
@<TRIPOS>SUBSTRUCTURE
     1  XMP      6

