@<TRIPOS>MOLECULE
1lol_ligand_074
    35    37
SMALL
GAST_HUCK
****
This file was generated by PARSER (from files_GN.cpp)

@<TRIPOS>ATOM
      1 P           5.4824   41.3553   45.2165 P.3         1 XMP       0.2008
      2 O1P         5.9803   42.2481   44.2044 O.co2       1 XMP      -0.5537
      3 O2P         6.6282   40.8232   45.9065 O.co2       1 XMP      -0.5537
      4 O5'         4.6925   40.2264   44.4844 O.3         1 XMP      -0.2734
      5 O3P         4.6858   42.1436   46.1221 O.co2       1 XMP      -0.5537
      6 C5'         4.1070   39.1867   45.3007 C.3         1 XMP       0.1072
      7 C4'         2.7322   39.5835   45.8984 C.3         1 XMP       0.1182
      8 O4'         1.8346   39.9484   44.8443 O.3         1 XMP      -0.3363
      9 C1'         0.5113   39.8743   45.3913 C.3         1 XMP       0.2010
     10 N9         -0.4883   39.7750   44.3603 N.pl3       1 XMP      -0.1896
     11 C4         -1.8005   40.0403   44.4883 C.2         1 XMP       0.2049
     12 N3         -2.5614   40.4792   45.5380 N.am        1 XMP      -0.1835
     13 N1         -4.4653   40.3566   44.2136 N.am        1 XMP      -0.1870
     14 C2         -3.8793   40.6228   45.3857 C.2         1 XMP       0.3214
     15 O2         -4.5579   41.0163   46.3220 O.2         1 XMP      -0.3846
     16 C6         -3.7742   39.9465   43.1457 C.2         1 XMP       0.1997
     17 O6         -4.3498   39.7435   42.0856 O.2         1 XMP      -0.4080
     18 C5         -2.4060   39.7701   43.2609 C.2         1 XMP       0.1084
     19 N7         -1.4645   39.3585   42.4005 N.2         1 XMP      -0.3331
     20 C8         -0.3038   39.3691   43.0842 C.2         1 XMP       0.0923
     21 C2'         0.5401   38.6538   46.3441 C.3         1 XMP       0.1387
     22 O2'        -0.2766   38.8757   47.4948 O.3         1 XMP      -0.3836
     23 C3'         2.0324   38.4428   46.6699 C.3         1 XMP       0.1149
     24 O3'         2.3628   38.4929   48.0557 O.3         1 XMP      -0.3864
     25 H1          4.7764   38.8295   46.0936 H           1 XMP       0.0639
     26 H2          3.9510   38.3444   44.6236 H           1 XMP       0.0639
     27 H3          2.8628   40.4448   46.5618 H           1 XMP       0.0650
     28 H4          0.3426   40.7978   45.9579 H           1 XMP       0.0998
     29 H5         -2.1447   40.6990   46.3849 H           1 XMP       0.2360
     30 H6         -5.4246   40.4837   44.1279 H           1 XMP       0.2254
     31 H7          0.5888   39.0838   42.6748 H           1 XMP       0.1125
     32 H8          0.1694   37.7627   45.8286 H           1 XMP       0.0676
     33 H9         -1.1707   38.6061   47.2074 H           1 XMP       0.2101
     34 H10         2.3486   37.4703   46.2822 H           1 XMP       0.0648
     35 H11         2.0388   37.6474   48.4299 H           1 XMP       0.2100
@<TRIPOS>BOND
     1     1     2  ar
     2     1     3  ar
     3     1     4   1
     4     1     5  ar
     5     4     6   1
     6     6     7   1
     7     7     8   1
     8     7    23   1
     9     8     9   1
    10     9    10   1
    11     9    21   1
    12    10    11   1
    13    10    20   1
    14    11    12  am
    15    11    18   2
    16    12    14  am
    17    14    13  am
    18    13    16  am
    19    14    15   2
    20    16    17   2
    21    16    18   1
    22    18    19   1
    23    19    20   2
    24    21    22   1
    25    21    23   1
    26    23    24   1
    27     6    25   1
    28     6    26   1
    29     7    27   1
    30     9    28   1
    31    12    29   1
    32    13    30   1
    33    20    31   1
    34    21    32   1
    35    22    33   1
    36    23    34   1
    37    24    35   1
@<TRIPOS>SUBSTRUCTURE
     1  XMP      6

