@<TRIPOS>MOLECULE
1lol_ligand_004
    35    37
SMALL
GAST_HUCK
****
This file was generated by PARSER (from files_GN.cpp)

@<TRIPOS>ATOM
      1 P           4.8477   35.6531   44.0631 P.3         1 XMP       0.2008
      2 O1P         3.8306   35.9383   43.0842 O.co2       1 XMP      -0.5537
      3 O2P         5.0503   34.2274   44.0516 O.co2       1 XMP      -0.5537
      4 O5'         4.3778   36.1017   45.4747 O.3         1 XMP      -0.2734
      5 O3P         6.0884   36.2674   43.6665 O.co2       1 XMP      -0.5537
      6 C5'         4.1522   37.5213   45.6323 C.3         1 XMP       0.1072
      7 C4'         3.5839   37.8112   47.0447 C.3         1 XMP       0.1182
      8 O4'         3.7501   39.2126   47.3164 O.3         1 XMP      -0.3363
      9 C1'         2.4654   39.8352   47.4483 C.3         1 XMP       0.2010
     10 N9          2.4990   41.1019   46.7690 N.pl3       1 XMP      -0.1896
     11 C4          2.5249   42.3237   47.3289 C.2         1 XMP       0.2049
     12 N3          2.4910   42.7446   48.6292 N.am        1 XMP      -0.1835
     13 N1          2.7168   44.9426   47.9183 N.am        1 XMP      -0.1870
     14 C2          2.5957   44.0447   48.9011 C.2         1 XMP       0.3214
     15 O2          2.5724   44.4214   50.0628 O.2         1 XMP      -0.3846
     16 C6          2.7577   44.5912   46.6309 C.2         1 XMP       0.1997
     17 O6          2.8992   45.4422   45.7685 O.2         1 XMP      -0.4080
     18 C5          2.6582   43.2518   46.2992 C.2         1 XMP       0.1084
     19 N7          2.7116   42.5969   45.1330 N.2         1 XMP      -0.3331
     20 C8          2.6119   41.2880   45.4332 C.2         1 XMP       0.0923
     21 C2'         1.4048   38.8357   46.9287 C.3         1 XMP       0.1387
     22 O2'         0.1294   39.0027   47.5553 O.3         1 XMP      -0.3836
     23 C3'         2.0791   37.4860   47.2182 C.3         1 XMP       0.1149
     24 O3'         1.8117   37.0779   48.5602 O.3         1 XMP      -0.3864
     25 H1          3.4532   37.9059   44.8791 H           1 XMP       0.0639
     26 H2          5.1019   38.0645   45.5262 H           1 XMP       0.0639
     27 H3          4.1821   37.2493   47.7676 H           1 XMP       0.0650
     28 H4          2.3061   39.9813   48.5216 H           1 XMP       0.0998
     29 H5          2.4077   42.1016   49.3497 H           1 XMP       0.2360
     30 H6          2.7992   45.8845   48.1482 H           1 XMP       0.2254
     31 H7          2.6525   40.5501   44.7259 H           1 XMP       0.1125
     32 H8          1.2672   38.9459   45.8508 H           1 XMP       0.0676
     33 H9         -0.5017   38.5121   46.9870 H           1 XMP       0.2101
     34 H10         1.7305   36.7074   46.5277 H           1 XMP       0.0648
     35 H11         2.4956   36.4015   48.7633 H           1 XMP       0.2100
@<TRIPOS>BOND
     1     1     2  ar
     2     1     3  ar
     3     1     4   1
     4     1     5  ar
     5     4     6   1
     6     6     7   1
     7     7     8   1
     8     7    23   1
     9     8     9   1
    10     9    10   1
    11     9    21   1
    12    10    11   1
    13    10    20   1
    14    11    12  am
    15    11    18   2
    16    12    14  am
    17    14    13  am
    18    13    16  am
    19    14    15   2
    20    16    17   2
    21    16    18   1
    22    18    19   1
    23    19    20   2
    24    21    22   1
    25    21    23   1
    26    23    24   1
    27     6    25   1
    28     6    26   1
    29     7    27   1
    30     9    28   1
    31    12    29   1
    32    13    30   1
    33    20    31   1
    34    21    32   1
    35    22    33   1
    36    23    34   1
    37    24    35   1
@<TRIPOS>SUBSTRUCTURE
     1  XMP      6

