@<TRIPOS>MOLECULE
1lol_ligand_081
    35    37
SMALL
GAST_HUCK
****
This file was generated by PARSER (from files_GN.cpp)

@<TRIPOS>ATOM
      1 P           0.8847   38.4709   46.5702 P.3         1 XMP       0.2008
      2 O1P        -0.1113   38.8648   47.5376 O.co2       1 XMP      -0.5537
      3 O2P         0.8139   37.0400   46.4082 O.co2       1 XMP      -0.5537
      4 O5'         2.2427   38.9044   47.1884 O.3         1 XMP      -0.2734
      5 O3P         0.5278   39.1378   45.3433 O.co2       1 XMP      -0.5537
      6 C5'         3.3564   39.2031   46.3210 C.3         1 XMP       0.1072
      7 C4'         3.1352   40.4769   45.4559 C.3         1 XMP       0.1182
      8 O4'         2.3353   41.4086   46.1945 O.3         1 XMP      -0.3363
      9 C1'         2.6032   42.7195   45.6805 C.3         1 XMP       0.2010
     10 N9          2.0058   43.6904   46.5611 N.pl3       1 XMP      -0.1896
     11 C4          2.5359   44.7572   47.1913 C.2         1 XMP       0.2049
     12 N3          3.7894   45.3047   47.1977 N.am        1 XMP      -0.1835
     13 N1          3.0788   46.9524   48.6774 N.am        1 XMP      -0.1870
     14 C2          4.0386   46.3850   47.9368 C.2         1 XMP       0.3214
     15 O2          5.1634   46.8616   47.9139 O.2         1 XMP      -0.3846
     16 C6          1.8309   46.4722   48.7033 C.2         1 XMP       0.1997
     17 O6          0.9787   47.0252   49.3871 O.2         1 XMP      -0.4080
     18 C5          1.5226   45.3485   47.9505 C.2         1 XMP       0.1084
     19 N7          0.3922   44.6558   47.7669 N.2         1 XMP      -0.3331
     20 C8          0.6988   43.6643   46.9121 C.2         1 XMP       0.0923
     21 C2'         4.1346   42.6868   45.5025 C.3         1 XMP       0.1387
     22 O2'         4.5945   43.6810   44.5901 O.3         1 XMP      -0.3836
     23 C3'         4.4144   41.2432   45.0348 C.3         1 XMP       0.1149
     24 O3'         4.6170   41.1786   43.6205 O.3         1 XMP      -0.3864
     25 H1          3.6251   38.3532   45.6859 H           1 XMP       0.0639
     26 H2          4.1970   39.3802   46.9973 H           1 XMP       0.0639
     27 H3          2.5686   40.1932   44.5650 H           1 XMP       0.0650
     28 H4          2.1273   42.8256   44.6983 H           1 XMP       0.0998
     29 H5          4.4939   44.9210   46.6516 H           1 XMP       0.2360
     30 H6          3.2951   47.7339   49.2124 H           1 XMP       0.2254
     31 H7          0.0194   42.9716   46.5928 H           1 XMP       0.1125
     32 H8          4.6238   42.8394   46.4681 H           1 XMP       0.0676
     33 H9          5.5737   43.6553   44.6669 H           1 XMP       0.2101
     34 H10         5.3118   40.8548   45.5247 H           1 XMP       0.0648
     35 H11         4.8660   40.2496   43.4272 H           1 XMP       0.2100
@<TRIPOS>BOND
     1     1     2  ar
     2     1     3  ar
     3     1     4   1
     4     1     5  ar
     5     4     6   1
     6     6     7   1
     7     7     8   1
     8     7    23   1
     9     8     9   1
    10     9    10   1
    11     9    21   1
    12    10    11   1
    13    10    20   1
    14    11    12  am
    15    11    18   2
    16    12    14  am
    17    14    13  am
    18    13    16  am
    19    14    15   2
    20    16    17   2
    21    16    18   1
    22    18    19   1
    23    19    20   2
    24    21    22   1
    25    21    23   1
    26    23    24   1
    27     6    25   1
    28     6    26   1
    29     7    27   1
    30     9    28   1
    31    12    29   1
    32    13    30   1
    33    20    31   1
    34    21    32   1
    35    22    33   1
    36    23    34   1
    37    24    35   1
@<TRIPOS>SUBSTRUCTURE
     1  XMP      6

