@<TRIPOS>MOLECULE
1lol_ligand_050
    35    37
SMALL
GAST_HUCK
****
This file was generated by PARSER (from files_GN.cpp)

@<TRIPOS>ATOM
      1 P          -0.5246   42.3490   46.7021 P.3         1 XMP       0.2008
      2 O1P        -0.8940   43.3791   47.6396 O.co2       1 XMP      -0.5537
      3 O2P        -0.6921   41.0521   47.3085 O.co2       1 XMP      -0.5537
      4 O5'         0.9139   42.5806   46.1538 O.3         1 XMP      -0.2734
      5 O3P        -1.4586   42.4617   45.6098 O.co2       1 XMP      -0.5537
      6 C5'         1.9523   42.8093   47.1285 C.3         1 XMP       0.1072
      7 C4'         3.1351   43.5746   46.4852 C.3         1 XMP       0.1182
      8 O4'         3.8419   42.7497   45.5563 O.3         1 XMP      -0.3363
      9 C1'         4.4606   43.5881   44.5578 C.3         1 XMP       0.2010
     10 N9          4.2597   43.0414   43.2375 N.pl3       1 XMP      -0.1896
     11 C4          4.6359   43.6007   42.0735 C.2         1 XMP       0.2049
     12 N3          5.2171   44.8050   41.7766 N.am        1 XMP      -0.1835
     13 N1          5.1575   44.2795   39.5157 N.am        1 XMP      -0.1870
     14 C2          5.4581   45.1259   40.5044 C.2         1 XMP       0.3214
     15 O2          5.9438   46.2170   40.2345 O.2         1 XMP      -0.3846
     16 C6          4.6114   43.0760   39.7420 C.2         1 XMP       0.1997
     17 O6          4.3585   42.3330   38.8062 O.2         1 XMP      -0.4080
     18 C5          4.3244   42.7095   41.0465 C.2         1 XMP       0.1084
     19 N7          3.7839   41.6076   41.5854 N.2         1 XMP      -0.3331
     20 C8          3.7398   41.8285   42.9121 C.2         1 XMP       0.0923
     21 C2'         3.9074   45.0305   44.7486 C.3         1 XMP       0.1387
     22 O2'         4.8651   45.9041   45.3574 O.3         1 XMP      -0.3836
     23 C3'         2.7116   44.8258   45.6889 C.3         1 XMP       0.1149
     24 O3'         2.4359   45.9341   46.5479 O.3         1 XMP      -0.3864
     25 H1          2.3111   41.8532   47.5134 H           1 XMP       0.0639
     26 H2          1.6009   43.4134   47.9701 H           1 XMP       0.0639
     27 H3          3.8365   43.8609   47.2784 H           1 XMP       0.0650
     28 H4          5.5379   43.5879   44.7475 H           1 XMP       0.0998
     29 H5          5.4335   45.4307   42.4843 H           1 XMP       0.2360
     30 H6          5.3450   44.5388   38.5981 H           1 XMP       0.2254
     31 H7          3.3761   41.1470   43.5797 H           1 XMP       0.1125
     32 H8          3.5721   45.4851   43.8118 H           1 XMP       0.0676
     33 H9          5.7092   45.7856   44.8775 H           1 XMP       0.2101
     34 H10         1.8239   44.6117   45.0879 H           1 XMP       0.0648
     35 H11         2.5282   46.7267   45.9784 H           1 XMP       0.2100
@<TRIPOS>BOND
     1     1     2  ar
     2     1     3  ar
     3     1     4   1
     4     1     5  ar
     5     4     6   1
     6     6     7   1
     7     7     8   1
     8     7    23   1
     9     8     9   1
    10     9    10   1
    11     9    21   1
    12    10    11   1
    13    10    20   1
    14    11    12  am
    15    11    18   2
    16    12    14  am
    17    14    13  am
    18    13    16  am
    19    14    15   2
    20    16    17   2
    21    16    18   1
    22    18    19   1
    23    19    20   2
    24    21    22   1
    25    21    23   1
    26    23    24   1
    27     6    25   1
    28     6    26   1
    29     7    27   1
    30     9    28   1
    31    12    29   1
    32    13    30   1
    33    20    31   1
    34    21    32   1
    35    22    33   1
    36    23    34   1
    37    24    35   1
@<TRIPOS>SUBSTRUCTURE
     1  XMP      6

