@<TRIPOS>MOLECULE
1lol_ligand_040
    35    37
SMALL
GAST_HUCK
****
This file was generated by PARSER (from files_GN.cpp)

@<TRIPOS>ATOM
      1 P           2.4551   37.4609   45.1624 P.3         1 XMP       0.2008
      2 O1P         3.8479   37.4956   45.5331 O.co2       1 XMP      -0.5537
      3 O2P         2.3082   36.4267   44.1760 O.co2       1 XMP      -0.5537
      4 O5'         2.1041   38.8275   44.5073 O.3         1 XMP      -0.2734
      5 O3P         1.6859   37.1068   46.3379 O.co2       1 XMP      -0.5537
      6 C5'         0.7525   39.3363   44.6144 C.3         1 XMP       0.1072
      7 C4'         0.5258   40.0413   45.9741 C.3         1 XMP       0.1182
      8 O4'         1.5612   41.0146   46.1500 O.3         1 XMP      -0.3363
      9 C1'         1.0206   42.1088   46.8938 C.3         1 XMP       0.2010
     10 N9          1.7707   43.3165   46.6932 N.pl3       1 XMP      -0.1896
     11 C4          2.4894   43.6677   45.6124 C.2         1 XMP       0.2049
     12 N3          2.7521   43.0323   44.4284 N.am        1 XMP      -0.1835
     13 N1          4.0716   44.8215   43.7589 N.am        1 XMP      -0.1870
     14 C2          3.5400   43.6160   43.5268 C.2         1 XMP       0.3214
     15 O2          3.7873   43.0374   42.4795 O.2         1 XMP      -0.3846
     16 C6          3.8420   45.4918   44.8918 C.2         1 XMP       0.1997
     17 O6          4.3692   46.5768   45.0786 O.2         1 XMP      -0.4080
     18 C5          3.0361   44.9254   45.8641 C.2         1 XMP       0.1084
     19 N7          2.6391   45.3296   47.0758 N.2         1 XMP      -0.3331
     20 C8          1.8667   44.3436   47.5680 C.2         1 XMP       0.0923
     21 C2'        -0.4357   42.2338   46.4154 C.3         1 XMP       0.1387
     22 O2'        -1.2419   42.8765   47.4056 O.3         1 XMP      -0.3836
     23 C3'        -0.8357   40.7800   46.1123 C.3         1 XMP       0.1149
     24 O3'        -1.6072   40.2342   47.1810 O.3         1 XMP      -0.3864
     25 H1         -0.0103   38.5719   44.4355 H           1 XMP       0.0639
     26 H2          0.6477   40.0837   43.8255 H           1 XMP       0.0639
     27 H3          0.6209   39.3076   46.7804 H           1 XMP       0.0650
     28 H4          1.0451   41.8346   47.9538 H           1 XMP       0.0998
     29 H5          2.3714   42.1589   44.2507 H           1 XMP       0.2360
     30 H6          4.6469   45.2196   43.0873 H           1 XMP       0.2254
     31 H7          1.4174   44.3770   48.4869 H           1 XMP       0.1125
     32 H8         -0.4877   42.8210   45.4939 H           1 XMP       0.0676
     33 H9         -2.0100   42.2834   47.5367 H           1 XMP       0.2101
     34 H10        -1.4307   40.7367   45.1951 H           1 XMP       0.0648
     35 H11        -2.0628   39.4450   46.8173 H           1 XMP       0.2100
@<TRIPOS>BOND
     1     1     2  ar
     2     1     3  ar
     3     1     4   1
     4     1     5  ar
     5     4     6   1
     6     6     7   1
     7     7     8   1
     8     7    23   1
     9     8     9   1
    10     9    10   1
    11     9    21   1
    12    10    11   1
    13    10    20   1
    14    11    12  am
    15    11    18   2
    16    12    14  am
    17    14    13  am
    18    13    16  am
    19    14    15   2
    20    16    17   2
    21    16    18   1
    22    18    19   1
    23    19    20   2
    24    21    22   1
    25    21    23   1
    26    23    24   1
    27     6    25   1
    28     6    26   1
    29     7    27   1
    30     9    28   1
    31    12    29   1
    32    13    30   1
    33    20    31   1
    34    21    32   1
    35    22    33   1
    36    23    34   1
    37    24    35   1
@<TRIPOS>SUBSTRUCTURE
     1  XMP      6

