@<TRIPOS>MOLECULE
1lol_ligand_075
    35    37
SMALL
GAST_HUCK
****
This file was generated by PARSER (from files_GN.cpp)

@<TRIPOS>ATOM
      1 P           3.3088   37.1511   45.2584 P.3         1 XMP       0.2008
      2 O1P         3.3015   38.1586   44.2315 O.co2       1 XMP      -0.5537
      3 O2P         2.4281   36.0851   44.8562 O.co2       1 XMP      -0.5537
      4 O5'         2.9873   37.6981   46.6828 O.3         1 XMP      -0.2734
      5 O3P         4.6464   36.6160   45.2948 O.co2       1 XMP      -0.5537
      6 C5'         1.9018   38.6310   46.8441 C.3         1 XMP       0.1072
      7 C4'         2.1675   40.0419   46.2432 C.3         1 XMP       0.1182
      8 O4'         1.3686   41.0314   46.9148 O.3         1 XMP      -0.3363
      9 C1'         2.0470   42.3025   46.8644 C.3         1 XMP       0.2010
     10 N9          2.1192   42.9408   48.1505 N.pl3       1 XMP      -0.1896
     11 C4          2.7108   44.1246   48.3905 C.2         1 XMP       0.2049
     12 N3          3.3758   44.9889   47.5691 N.am        1 XMP      -0.1835
     13 N1          3.8224   46.3642   49.3854 N.am        1 XMP      -0.1870
     14 C2          3.9337   46.0853   48.0813 C.2         1 XMP       0.3214
     15 O2          4.5790   46.8098   47.3418 O.2         1 XMP      -0.3846
     16 C6          3.1676   45.5616   50.2329 C.2         1 XMP       0.1997
     17 O6          3.1043   45.8492   51.4167 O.2         1 XMP      -0.4080
     18 C5          2.5957   44.3949   49.7503 C.2         1 XMP       0.1084
     19 N7          1.9304   43.3831   50.3247 N.2         1 XMP      -0.3331
     20 C8          1.6471   42.5070   49.3405 C.2         1 XMP       0.0923
     21 C2'         3.4566   42.0530   46.2606 C.3         1 XMP       0.1387
     22 O2'         3.5193   42.4902   44.8996 O.3         1 XMP      -0.3836
     23 C3'         3.6170   40.5362   46.3980 C.3         1 XMP       0.1149
     24 O3'         4.5348   39.9905   45.4516 O.3         1 XMP      -0.3864
     25 H1          1.7693   38.7461   47.9220 H           1 XMP       0.0639
     26 H2          0.9574   38.2306   46.4555 H           1 XMP       0.0639
     27 H3          1.8869   40.0422   45.1855 H           1 XMP       0.0650
     28 H4          1.4650   42.9512   46.2046 H           1 XMP       0.0998
     29 H5          3.4719   44.7859   46.6258 H           1 XMP       0.2360
     30 H6          4.2311   47.1768   49.7266 H           1 XMP       0.2254
     31 H7          1.1413   41.6310   49.4948 H           1 XMP       0.1125
     32 H8          4.2598   42.5604   46.8060 H           1 XMP       0.0676
     33 H9          2.7356   42.0960   44.4569 H           1 XMP       0.2101
     34 H10         3.9776   40.3025   47.4024 H           1 XMP       0.0648
     35 H11         4.2287   40.3147   44.5743 H           1 XMP       0.2100
@<TRIPOS>BOND
     1     1     2  ar
     2     1     3  ar
     3     1     4   1
     4     1     5  ar
     5     4     6   1
     6     6     7   1
     7     7     8   1
     8     7    23   1
     9     8     9   1
    10     9    10   1
    11     9    21   1
    12    10    11   1
    13    10    20   1
    14    11    12  am
    15    11    18   2
    16    12    14  am
    17    14    13  am
    18    13    16  am
    19    14    15   2
    20    16    17   2
    21    16    18   1
    22    18    19   1
    23    19    20   2
    24    21    22   1
    25    21    23   1
    26    23    24   1
    27     6    25   1
    28     6    26   1
    29     7    27   1
    30     9    28   1
    31    12    29   1
    32    13    30   1
    33    20    31   1
    34    21    32   1
    35    22    33   1
    36    23    34   1
    37    24    35   1
@<TRIPOS>SUBSTRUCTURE
     1  XMP      6

