@<TRIPOS>MOLECULE
1lol_ligand_052
    35    37
SMALL
GAST_HUCK
****
This file was generated by PARSER (from files_GN.cpp)

@<TRIPOS>ATOM
      1 P          -1.2320   40.8311   45.8094 P.3         1 XMP       0.2008
      2 O1P        -0.2631   41.7224   45.2352 O.co2       1 XMP      -0.5537
      3 O2P        -2.2243   41.6328   46.4835 O.co2       1 XMP      -0.5537
      4 O5'        -0.6112   39.8305   46.8450 O.3         1 XMP      -0.2734
      5 O3P        -1.9197   40.1505   44.7392 O.co2       1 XMP      -0.5537
      6 C5'         0.3936   38.9096   46.3446 C.3         1 XMP       0.1072
      7 C4'         1.8574   39.3381   46.6884 C.3         1 XMP       0.1182
      8 O4'         1.9926   40.7682   46.5828 O.3         1 XMP      -0.3363
      9 C1'         2.3828   41.3144   47.8538 C.3         1 XMP       0.2010
     10 N9          1.7179   42.5732   48.0599 N.pl3       1 XMP      -0.1896
     11 C4          2.2486   43.7941   47.8841 C.2         1 XMP       0.2049
     12 N3          3.5031   44.2410   47.5358 N.am        1 XMP      -0.1835
     13 N1          2.7494   46.4321   47.5587 N.am        1 XMP      -0.1870
     14 C2          3.7346   45.5484   47.3815 C.2         1 XMP       0.3214
     15 O2          4.8443   45.9468   47.0597 O.2         1 XMP      -0.3846
     16 C6          1.5111   46.0720   47.9064 C.2         1 XMP       0.1997
     17 O6          0.6441   46.9147   48.0676 O.2         1 XMP      -0.4080
     18 C5          1.2298   44.7246   48.0704 C.2         1 XMP       0.1084
     19 N7          0.1020   44.0752   48.3704 N.2         1 XMP      -0.3331
     20 C8          0.4114   42.7700   48.3515 C.2         1 XMP       0.0923
     21 C2'         2.1013   40.2215   48.9086 C.3         1 XMP       0.1387
     22 O2'         2.9007   40.3243   50.0799 O.3         1 XMP      -0.3836
     23 C3'         2.3497   38.9391   48.1073 C.3         1 XMP       0.1149
     24 O3'         3.7396   38.6063   48.0775 O.3         1 XMP      -0.3864
     25 H1          0.3188   38.7300   45.2551 H           1 XMP       0.0639
     26 H2          0.1947   37.9443   46.8080 H           1 XMP       0.0639
     27 H3          2.5198   38.8814   45.9396 H           1 XMP       0.0650
     28 H4          3.4643   41.4651   47.7935 H           1 XMP       0.0998
     29 H5          4.2235   43.6044   47.3871 H           1 XMP       0.2360
     30 H6          2.9385   47.3760   47.4355 H           1 XMP       0.2254
     31 H7         -0.2763   42.0343   48.5346 H           1 XMP       0.1125
     32 H8          1.0560   40.2337   49.2210 H           1 XMP       0.0676
     33 H9          3.8229   40.1678   49.7821 H           1 XMP       0.2101
     34 H10         1.7998   38.0891   48.5259 H           1 XMP       0.0648
     35 H11         3.7983   37.8048   47.5034 H           1 XMP       0.2100
@<TRIPOS>BOND
     1     1     2  ar
     2     1     3  ar
     3     1     4   1
     4     1     5  ar
     5     4     6   1
     6     6     7   1
     7     7     8   1
     8     7    23   1
     9     8     9   1
    10     9    10   1
    11     9    21   1
    12    10    11   1
    13    10    20   1
    14    11    12  am
    15    11    18   2
    16    12    14  am
    17    14    13  am
    18    13    16  am
    19    14    15   2
    20    16    17   2
    21    16    18   1
    22    18    19   1
    23    19    20   2
    24    21    22   1
    25    21    23   1
    26    23    24   1
    27     6    25   1
    28     6    26   1
    29     7    27   1
    30     9    28   1
    31    12    29   1
    32    13    30   1
    33    20    31   1
    34    21    32   1
    35    22    33   1
    36    23    34   1
    37    24    35   1
@<TRIPOS>SUBSTRUCTURE
     1  XMP      6

