@<TRIPOS>MOLECULE
1lol_ligand_009
    35    37
SMALL
GAST_HUCK
****
This file was generated by PARSER (from files_GN.cpp)

@<TRIPOS>ATOM
      1 P           4.6108   45.0864   45.1284 P.3         1 XMP       0.2008
      2 O1P         5.2814   45.4783   46.3420 O.co2       1 XMP      -0.5537
      3 O2P         4.8897   46.0734   44.1177 O.co2       1 XMP      -0.5537
      4 O5'         3.0640   44.9808   45.2509 O.3         1 XMP      -0.2734
      5 O3P         5.1543   43.8351   44.6681 O.co2       1 XMP      -0.5537
      6 C5'         2.5333   44.3855   46.4513 C.3         1 XMP       0.1072
      7 C4'         1.0995   43.8696   46.1646 C.3         1 XMP       0.1182
      8 O4'         1.1826   42.6706   45.3847 O.3         1 XMP      -0.3363
      9 C1'         0.0093   41.8959   45.6589 C.3         1 XMP       0.2010
     10 N9          0.2542   40.5334   45.2769 N.pl3       1 XMP      -0.1896
     11 C4         -0.3868   39.8165   44.3346 C.2         1 XMP       0.2049
     12 N3         -1.4280   40.0978   43.4839 N.am        1 XMP      -0.1835
     13 N1         -1.2389   37.9757   42.5536 N.am        1 XMP      -0.1870
     14 C2         -1.8278   39.1765   42.6027 C.2         1 XMP       0.3214
     15 O2         -2.7331   39.4320   41.8232 O.2         1 XMP      -0.3846
     16 C6         -0.2308   37.6387   43.3634 C.2         1 XMP       0.1997
     17 O6          0.2755   36.5286   43.2982 O.2         1 XMP      -0.4080
     18 C5          0.2360   38.5705   44.2731 C.2         1 XMP       0.1084
     19 N7          1.2391   38.5379   45.1593 N.2         1 XMP      -0.3331
     20 C8          1.2412   39.7408   45.7588 C.2         1 XMP       0.0923
     21 C2'        -0.2799   42.1069   47.1600 C.3         1 XMP       0.1387
     22 O2'        -1.6701   41.9600   47.4529 O.3         1 XMP      -0.3836
     23 C3'         0.2755   43.5185   47.4306 C.3         1 XMP       0.1149
     24 O3'        -0.7536   44.4816   47.6566 O.3         1 XMP      -0.3864
     25 H1          2.4928   45.1508   47.2311 H           1 XMP       0.0639
     26 H2          3.1334   43.5440   46.8152 H           1 XMP       0.0639
     27 H3          0.5655   44.6196   45.5727 H           1 XMP       0.0650
     28 H4         -0.8212   42.3107   45.0751 H           1 XMP       0.0998
     29 H5         -1.8670   40.9655   43.5100 H           1 XMP       0.2360
     30 H6         -1.5532   37.3272   41.9047 H           1 XMP       0.2254
     31 H7          1.9200   40.0108   46.4739 H           1 XMP       0.1125
     32 H8          0.2728   41.3851   47.7677 H           1 XMP       0.0676
     33 H9         -1.7832   42.2769   48.3756 H           1 XMP       0.2101
     34 H10         0.9054   43.4979   48.3244 H           1 XMP       0.0648
     35 H11        -1.2269   44.5955   46.8036 H           1 XMP       0.2100
@<TRIPOS>BOND
     1     1     2  ar
     2     1     3  ar
     3     1     4   1
     4     1     5  ar
     5     4     6   1
     6     6     7   1
     7     7     8   1
     8     7    23   1
     9     8     9   1
    10     9    10   1
    11     9    21   1
    12    10    11   1
    13    10    20   1
    14    11    12  am
    15    11    18   2
    16    12    14  am
    17    14    13  am
    18    13    16  am
    19    14    15   2
    20    16    17   2
    21    16    18   1
    22    18    19   1
    23    19    20   2
    24    21    22   1
    25    21    23   1
    26    23    24   1
    27     6    25   1
    28     6    26   1
    29     7    27   1
    30     9    28   1
    31    12    29   1
    32    13    30   1
    33    20    31   1
    34    21    32   1
    35    22    33   1
    36    23    34   1
    37    24    35   1
@<TRIPOS>SUBSTRUCTURE
     1  XMP      6

