@<TRIPOS>MOLECULE
1lol_ligand_049
    35    37
SMALL
GAST_HUCK
****
This file was generated by PARSER (from files_GN.cpp)

@<TRIPOS>ATOM
      1 P           1.2320   43.5409   48.7390 P.3         1 XMP       0.2008
      2 O1P         1.1676   42.1655   48.3124 O.co2       1 XMP      -0.5537
      3 O2P        -0.0849   44.0949   48.5425 O.co2       1 XMP      -0.5537
      4 O5'         2.2672   44.2544   47.8304 O.3         1 XMP      -0.2734
      5 O3P         1.5661   43.5366   50.1430 O.co2       1 XMP      -0.5537
      6 C5'         3.0842   45.2968   48.3941 C.3         1 XMP       0.1072
      7 C4'         3.9173   46.0134   47.2906 C.3         1 XMP       0.1182
      8 O4'         4.9979   45.1808   46.8448 O.3         1 XMP      -0.3363
      9 C1'         4.7678   44.7647   45.4886 C.3         1 XMP       0.2010
     10 N9          4.9555   43.3454   45.3698 N.pl3       1 XMP      -0.1896
     11 C4          5.6234   42.6868   44.4054 C.2         1 XMP       0.2049
     12 N3          6.3108   43.1065   43.2977 N.am        1 XMP      -0.1835
     13 N1          6.8109   40.8966   42.7753 N.am        1 XMP      -0.1870
     14 C2          6.8946   42.2052   42.5031 C.2         1 XMP       0.3214
     15 O2          7.5103   42.5791   41.5208 O.2         1 XMP      -0.3846
     16 C6          6.1608   40.4298   43.8426 C.2         1 XMP       0.1997
     17 O6          6.1052   39.2271   44.0491 O.2         1 XMP      -0.4080
     18 C5          5.5484   41.3272   44.7001 C.2         1 XMP       0.1084
     19 N7          4.8635   41.1692   45.8368 N.2         1 XMP      -0.3331
     20 C8          4.5107   42.4025   46.2298 C.2         1 XMP       0.0923
     21 C2'         3.3553   45.2498   45.0768 C.3         1 XMP       0.1387
     22 O2'         3.2805   45.6342   43.7023 O.3         1 XMP      -0.3836
     23 C3'         3.0996   46.4150   46.0441 C.3         1 XMP       0.1149
     24 O3'         3.5874   47.6501   45.5184 O.3         1 XMP      -0.3864
     25 H1          3.7758   44.8669   49.1299 H           1 XMP       0.0639
     26 H2          2.4669   46.0455   48.8984 H           1 XMP       0.0639
     27 H3          4.3613   46.8972   47.7556 H           1 XMP       0.0650
     28 H4          5.5059   45.2939   44.8751 H           1 XMP       0.0998
     29 H5          6.3824   44.0540   43.0981 H           1 XMP       0.2360
     30 H6          7.2390   40.2669   42.1748 H           1 XMP       0.2254
     31 H7          4.0027   42.5754   47.0893 H           1 XMP       0.1125
     32 H8          2.6119   44.4627   45.2476 H           1 XMP       0.0676
     33 H9          3.3399   44.7969   43.1953 H           1 XMP       0.2101
     34 H10         2.0375   46.5322   46.2712 H           1 XMP       0.0648
     35 H11         2.8683   48.0335   44.9758 H           1 XMP       0.2100
@<TRIPOS>BOND
     1     1     2  ar
     2     1     3  ar
     3     1     4   1
     4     1     5  ar
     5     4     6   1
     6     6     7   1
     7     7     8   1
     8     7    23   1
     9     8     9   1
    10     9    10   1
    11     9    21   1
    12    10    11   1
    13    10    20   1
    14    11    12  am
    15    11    18   2
    16    12    14  am
    17    14    13  am
    18    13    16  am
    19    14    15   2
    20    16    17   2
    21    16    18   1
    22    18    19   1
    23    19    20   2
    24    21    22   1
    25    21    23   1
    26    23    24   1
    27     6    25   1
    28     6    26   1
    29     7    27   1
    30     9    28   1
    31    12    29   1
    32    13    30   1
    33    20    31   1
    34    21    32   1
    35    22    33   1
    36    23    34   1
    37    24    35   1
@<TRIPOS>SUBSTRUCTURE
     1  XMP      6

