@<TRIPOS>MOLECULE
1loq_ligand_043
    32    33
SMALL
GAST_HUCK
****
This file was generated by PARSER (from files_GN.cpp)

@<TRIPOS>ATOM
      1 O3P        40.4954   36.8222   33.8350 O.co2       1 MOL      -0.5537
      2 P          40.5247   38.2543   33.9714 P.3         1 MOL       0.2008
      3 O1P        41.5230   38.5715   34.9646 O.co2       1 MOL      -0.5537
      4 O2P        40.9876   38.8468   32.7396 O.co2       1 MOL      -0.5537
      5 O5'        39.2102   38.9321   34.4525 O.3         1 MOL      -0.2734
      6 C5'        37.9749   38.1870   34.4066 C.3         1 MOL       0.1072
      7 C4'        37.8703   37.0561   35.4702 C.3         1 MOL       0.1182
      8 O4'        38.5555   35.8693   35.0661 O.3         1 MOL      -0.3363
      9 C3'        38.4673   37.3747   36.8568 C.3         1 MOL       0.1149
     10 O3'        37.6395   38.2200   37.6526 O.3         1 MOL      -0.3864
     11 C2'        38.7395   35.9743   37.4513 C.3         1 MOL       0.1387
     12 O2'        37.8067   35.6128   38.4653 O.3         1 MOL      -0.3836
     13 C1'        38.6459   35.0233   36.2261 C.3         1 MOL       0.2059
     14 N1         39.7502   34.0906   36.0653 N.am        1 MOL      -0.1592
     15 C2         39.5725   32.7833   35.7699 C.2         1 MOL       0.3328
     16 O2         38.4831   32.2394   35.6600 O.2         1 MOL      -0.3815
     17 N3         40.6279   31.9931   35.5919 N.am        1 MOL      -0.1865
     18 C4         41.8688   32.4713   35.6194 C.2         1 MOL       0.1822
     19 O4         42.8034   31.7122   35.4123 O.2         1 MOL      -0.4124
     20 C5         42.0963   33.7689   35.9319 C.2         1 MOL       0.0062
     21 C6         41.0320   34.5589   36.1656 C.2         1 MOL       0.0591
     22 H1         37.7649   37.7811   33.4104 H           1 MOL       0.0639
     23 H2         37.1890   38.9141   34.6264 H           1 MOL       0.0639
     24 H3         36.8083   36.8040   35.5769 H           1 MOL       0.0650
     25 H4         39.4316   37.8816   36.7443 H           1 MOL       0.0648
     26 H5         36.7716   38.2524   37.2062 H           1 MOL       0.2100
     27 H6         39.7332   35.9573   37.9109 H           1 MOL       0.0676
     28 H7         38.1971   34.8252   38.8972 H           1 MOL       0.2101
     29 H8         37.6855   34.4961   36.2703 H           1 MOL       0.0997
     30 H9         40.4838   31.0413   35.4669 H           1 MOL       0.2259
     31 H10        43.0198   34.1305   35.9818 H           1 MOL       0.0258
     32 H11        41.2016   35.5001   36.4370 H           1 MOL       0.1178
@<TRIPOS>BOND
     1     2     1  ar
     2     2     3  ar
     3     2     4  ar
     4     2     5   1
     5     5     6   1
     6     6     7   1
     7     7     8   1
     8     7     9   1
     9     8    13   1
    10     9    10   1
    11     9    11   1
    12    11    12   1
    13    11    13   1
    14    13    14   1
    15    14    15  am
    16    14    21   1
    17    15    16   2
    18    15    17  am
    19    17    18  am
    20    18    19   2
    21    18    20   1
    22    20    21   2
    23     6    22   1
    24     6    23   1
    25     7    24   1
    26     9    25   1
    27    10    26   1
    28    11    27   1
    29    12    28   1
    30    13    29   1
    31    17    30   1
    32    20    31   1
    33    21    32   1
@<TRIPOS>SUBSTRUCTURE
     1  MOL      6

