@<TRIPOS>MOLECULE
1loq_ligand_007
    32    33
SMALL
GAST_HUCK
****
This file was generated by PARSER (from files_GN.cpp)

@<TRIPOS>ATOM
      1 O3P        39.4930   32.5376   36.5158 O.co2       1 MOL      -0.5537
      2 P          39.6467   32.5549   35.0815 P.3         1 MOL       0.2008
      3 O1P        41.0383   32.3379   34.7719 O.co2       1 MOL      -0.5537
      4 O2P        38.9095   31.4033   34.6099 O.co2       1 MOL      -0.5537
      5 O5'        39.1360   33.8649   34.4017 O.3         1 MOL      -0.2734
      6 C5'        38.7873   34.9727   35.2570 C.3         1 MOL       0.1072
      7 C4'        39.9585   35.4579   36.1777 C.3         1 MOL       0.1182
      8 O4'        40.4467   36.7213   35.6917 O.3         1 MOL      -0.3363
      9 C3'        39.6051   35.6747   37.6661 C.3         1 MOL       0.1149
     10 O3'        40.7218   35.3035   38.4845 O.3         1 MOL      -0.3864
     11 C2'        39.3175   37.1839   37.7190 C.3         1 MOL       0.1387
     12 O2'        39.4919   37.7037   39.0381 O.3         1 MOL      -0.3836
     13 C1'        40.3115   37.7658   36.6788 C.3         1 MOL       0.2059
     14 N1         40.0570   39.0341   36.0063 N.am        1 MOL      -0.1592
     15 C2         39.0582   39.8999   36.3112 C.2         1 MOL       0.3328
     16 O2         38.2629   39.7525   37.2262 O.2         1 MOL      -0.3815
     17 N3         38.9003   41.0263   35.6132 N.am        1 MOL      -0.1865
     18 C4         39.7041   41.3420   34.6002 C.2         1 MOL       0.1822
     19 O4         39.5058   42.3774   33.9837 O.2         1 MOL      -0.4124
     20 C5         40.7443   40.5315   34.2790 C.2         1 MOL       0.0062
     21 C6         40.9196   39.4046   34.9983 C.2         1 MOL       0.0591
     22 H1         37.8956   34.7306   35.8369 H           1 MOL       0.0639
     23 H2         38.4886   35.7862   34.5926 H           1 MOL       0.0639
     24 H3         40.7806   34.7492   36.1071 H           1 MOL       0.0650
     25 H4         38.7388   35.0891   37.9903 H           1 MOL       0.0648
     26 H5         40.4543   35.5079   39.4059 H           1 MOL       0.2100
     27 H6         38.2837   37.3374   37.4016 H           1 MOL       0.0676
     28 H7         39.2923   38.6598   38.9722 H           1 MOL       0.2101
     29 H8         41.2842   37.8463   37.1700 H           1 MOL       0.0997
     30 H9         38.1829   41.6288   35.8542 H           1 MOL       0.2259
     31 H10        41.3689   40.7656   33.5391 H           1 MOL       0.0258
     32 H11        41.7025   38.8355   34.7697 H           1 MOL       0.1178
@<TRIPOS>BOND
     1     2     1  ar
     2     2     3  ar
     3     2     4  ar
     4     2     5   1
     5     5     6   1
     6     6     7   1
     7     7     8   1
     8     7     9   1
     9     8    13   1
    10     9    10   1
    11     9    11   1
    12    11    12   1
    13    11    13   1
    14    13    14   1
    15    14    15  am
    16    14    21   1
    17    15    16   2
    18    15    17  am
    19    17    18  am
    20    18    19   2
    21    18    20   1
    22    20    21   2
    23     6    22   1
    24     6    23   1
    25     7    24   1
    26     9    25   1
    27    10    26   1
    28    11    27   1
    29    12    28   1
    30    13    29   1
    31    17    30   1
    32    20    31   1
    33    21    32   1
@<TRIPOS>SUBSTRUCTURE
     1  MOL      6

