@<TRIPOS>MOLECULE
1loq_ligand_032
    32    33
SMALL
GAST_HUCK
****
This file was generated by PARSER (from files_GN.cpp)

@<TRIPOS>ATOM
      1 O3P        39.9049   41.2267   37.9628 O.co2       1 MOL      -0.5537
      2 P          39.9709   39.7910   38.0730 P.3         1 MOL       0.2008
      3 O1P        41.1775   39.3542   37.4103 O.co2       1 MOL      -0.5537
      4 O2P        40.0337   39.5290   39.4872 O.co2       1 MOL      -0.5537
      5 O5'        38.6843   39.2597   37.3851 O.3         1 MOL      -0.2734
      6 C5'        38.1335   37.9802   37.7678 C.3         1 MOL       0.1072
      7 C4'        38.0344   36.9703   36.5920 C.3         1 MOL       0.1182
      8 O4'        38.0590   37.6018   35.3069 O.3         1 MOL      -0.3363
      9 C3'        39.1711   35.9352   36.4999 C.3         1 MOL       0.1149
     10 O3'        39.0540   34.9109   37.4917 O.3         1 MOL      -0.3864
     11 C2'        39.0292   35.4194   35.0530 C.3         1 MOL       0.1387
     12 O2'        38.3205   34.1768   34.9807 O.3         1 MOL      -0.3836
     13 C1'        38.2385   36.5557   34.3435 C.3         1 MOL       0.2059
     14 N1         38.8576   37.0947   33.1366 N.am        1 MOL      -0.1592
     15 C2         40.1023   37.6155   33.1413 C.2         1 MOL       0.3328
     16 O2         40.7976   37.7023   34.1435 O.2         1 MOL      -0.3815
     17 N3         40.6426   38.0743   32.0130 N.am        1 MOL      -0.1865
     18 C4         39.9687   38.0725   30.8653 C.2         1 MOL       0.1822
     19 O4         40.5082   38.5047   29.8590 O.2         1 MOL      -0.4124
     20 C5         38.6898   37.6073   30.8256 C.2         1 MOL       0.0062
     21 C6         38.1510   37.1230   31.9612 C.2         1 MOL       0.0591
     22 H1         37.1160   38.2162   38.0763 H           1 MOL       0.0639
     23 H2         38.6198   37.5085   38.6280 H           1 MOL       0.0639
     24 H3         37.0836   36.4276   36.7015 H           1 MOL       0.0650
     25 H4         40.1364   36.4345   36.6199 H           1 MOL       0.0648
     26 H5         39.7451   34.2592   37.2720 H           1 MOL       0.2100
     27 H6         40.0194   35.2569   34.6142 H           1 MOL       0.0676
     28 H7         38.9154   33.5150   35.3957 H           1 MOL       0.2101
     29 H8         37.2261   36.1797   34.1306 H           1 MOL       0.0997
     30 H9         41.5471   38.4227   32.0264 H           1 MOL       0.2259
     31 H10        38.1553   37.6440   29.9890 H           1 MOL       0.0258
     32 H11        37.2140   36.7865   31.9233 H           1 MOL       0.1178
@<TRIPOS>BOND
     1     2     1  ar
     2     2     3  ar
     3     2     4  ar
     4     2     5   1
     5     5     6   1
     6     6     7   1
     7     7     8   1
     8     7     9   1
     9     8    13   1
    10     9    10   1
    11     9    11   1
    12    11    12   1
    13    11    13   1
    14    13    14   1
    15    14    15  am
    16    14    21   1
    17    15    16   2
    18    15    17  am
    19    17    18  am
    20    18    19   2
    21    18    20   1
    22    20    21   2
    23     6    22   1
    24     6    23   1
    25     7    24   1
    26     9    25   1
    27    10    26   1
    28    11    27   1
    29    12    28   1
    30    13    29   1
    31    17    30   1
    32    20    31   1
    33    21    32   1
@<TRIPOS>SUBSTRUCTURE
     1  MOL      6

