@<TRIPOS>MOLECULE
1loq_ligand_024
    32    33
SMALL
GAST_HUCK
****
This file was generated by PARSER (from files_GN.cpp)

@<TRIPOS>ATOM
      1 O3P        42.6874   39.2571   31.1691 O.co2       1 MOL      -0.5537
      2 P          42.0641   38.3268   32.0747 P.3         1 MOL       0.2008
      3 O1P        42.5063   37.0006   31.7335 O.co2       1 MOL      -0.5537
      4 O2P        42.4989   38.5896   33.4222 O.co2       1 MOL      -0.5537
      5 O5'        40.5114   38.3647   31.9501 O.3         1 MOL      -0.2734
      6 C5'        39.8240   39.5031   32.5245 C.3         1 MOL       0.1072
      7 C4'        38.4957   39.0359   33.1924 C.3         1 MOL       0.1182
      8 O4'        38.7068   37.7509   33.8039 O.3         1 MOL      -0.3363
      9 C3'        37.9811   39.9790   34.3129 C.3         1 MOL       0.1149
     10 O3'        36.5551   40.0644   34.2717 O.3         1 MOL      -0.3864
     11 C2'        38.4815   39.2634   35.5855 C.3         1 MOL       0.1387
     12 O2'        37.7714   39.6111   36.7773 O.3         1 MOL      -0.3836
     13 C1'        38.3255   37.7738   35.1877 C.3         1 MOL       0.2059
     14 N1         39.0357   36.7128   35.8846 N.am        1 MOL      -0.1592
     15 C2         38.8753   35.4242   35.5009 C.2         1 MOL       0.3328
     16 O2         38.1540   35.0715   34.5742 O.2         1 MOL      -0.3815
     17 N3         39.5500   34.4454   36.1017 N.am        1 MOL      -0.1865
     18 C4         40.3846   34.6994   37.1007 C.2         1 MOL       0.1822
     19 O4         41.0040   33.7737   37.6022 O.2         1 MOL      -0.4124
     20 C5         40.5347   35.9694   37.5651 C.2         1 MOL       0.0062
     21 C6         39.8580   36.9569   36.9497 C.2         1 MOL       0.0591
     22 H1         39.5926   40.2102   31.7203 H           1 MOL       0.0639
     23 H2         40.4249   40.0420   33.2685 H           1 MOL       0.0639
     24 H3         37.7347   38.9131   32.4152 H           1 MOL       0.0650
     25 H4         38.3828   40.9923   34.2321 H           1 MOL       0.0648
     26 H5         36.3225   40.7707   34.9106 H           1 MOL       0.2100
     27 H6         39.5388   39.4999   35.7397 H           1 MOL       0.0676
     28 H7         36.8519   39.3182   36.6285 H           1 MOL       0.2101
     29 H8         37.2590   37.5284   35.2416 H           1 MOL       0.0997
     30 H9         39.4456   33.5325   35.7897 H           1 MOL       0.2259
     31 H10        41.1141   36.1608   38.3533 H           1 MOL       0.0258
     32 H11        39.9615   37.8739   37.3094 H           1 MOL       0.1178
@<TRIPOS>BOND
     1     2     1  ar
     2     2     3  ar
     3     2     4  ar
     4     2     5   1
     5     5     6   1
     6     6     7   1
     7     7     8   1
     8     7     9   1
     9     8    13   1
    10     9    10   1
    11     9    11   1
    12    11    12   1
    13    11    13   1
    14    13    14   1
    15    14    15  am
    16    14    21   1
    17    15    16   2
    18    15    17  am
    19    17    18  am
    20    18    19   2
    21    18    20   1
    22    20    21   2
    23     6    22   1
    24     6    23   1
    25     7    24   1
    26     9    25   1
    27    10    26   1
    28    11    27   1
    29    12    28   1
    30    13    29   1
    31    17    30   1
    32    20    31   1
    33    21    32   1
@<TRIPOS>SUBSTRUCTURE
     1  MOL      6

