@<TRIPOS>MOLECULE
1loq_ligand_042
    32    33
SMALL
GAST_HUCK
****
This file was generated by PARSER (from files_GN.cpp)

@<TRIPOS>ATOM
      1 O3P        34.8282   40.3875   33.0498 O.co2       1 MOL      -0.5537
      2 P          36.2650   40.2828   32.9124 P.3         1 MOL       0.2008
      3 O1P        36.6261   40.0842   31.5287 O.co2       1 MOL      -0.5537
      4 O2P        36.7753   41.5832   33.2802 O.co2       1 MOL      -0.5537
      5 O5'        36.8543   39.2767   33.9373 O.3         1 MOL      -0.2734
      6 C5'        37.1752   37.9379   33.5072 C.3         1 MOL       0.1072
      7 C4'        38.5947   37.8060   32.8912 C.3         1 MOL       0.1182
      8 O4'        38.6180   38.0591   31.4834 O.3         1 MOL      -0.3363
      9 C3'        39.6346   38.7977   33.4587 C.3         1 MOL       0.1149
     10 O3'        40.0910   38.4361   34.7627 O.3         1 MOL      -0.3864
     11 C2'        40.7311   38.8132   32.3759 C.3         1 MOL       0.1387
     12 O2'        41.8431   37.9841   32.7133 O.3         1 MOL      -0.3836
     13 C1'        39.9938   38.2796   31.1127 C.3         1 MOL       0.2059
     14 N1         40.0609   39.1496   29.9455 N.am        1 MOL      -0.1592
     15 C2         39.6762   40.4470   29.9987 C.2         1 MOL       0.3328
     16 O2         39.2579   40.9875   31.0140 O.2         1 MOL      -0.3815
     17 N3         39.7257   41.2049   28.9019 N.am        1 MOL      -0.1865
     18 C4         40.1558   40.7253   27.7374 C.2         1 MOL       0.1822
     19 O4         40.1992   41.4717   26.7697 O.2         1 MOL      -0.4124
     20 C5         40.5374   39.4228   27.6372 C.2         1 MOL       0.0062
     21 C6         40.4962   38.6546   28.7425 C.2         1 MOL       0.0591
     22 H1         36.4287   37.5184   32.8246 H           1 MOL       0.0639
     23 H2         37.1475   37.3213   34.4077 H           1 MOL       0.0639
     24 H3         38.9338   36.7800   33.0658 H           1 MOL       0.0650
     25 H4         39.1991   39.7989   33.5268 H           1 MOL       0.0648
     26 H5         40.5820   37.5989   34.6455 H           1 MOL       0.2100
     27 H6         41.1091   39.8280   32.2296 H           1 MOL       0.0676
     28 H7         42.3141   38.4546   33.4328 H           1 MOL       0.2101
     29 H8         40.3980   37.2870   30.8778 H           1 MOL       0.0997
     30 H9         39.4449   42.1362   28.9576 H           1 MOL       0.2259
     31 H10        40.8309   39.0434   26.7691 H           1 MOL       0.0258
     32 H11        40.7775   37.7053   28.6591 H           1 MOL       0.1178
@<TRIPOS>BOND
     1     2     1  ar
     2     2     3  ar
     3     2     4  ar
     4     2     5   1
     5     5     6   1
     6     6     7   1
     7     7     8   1
     8     7     9   1
     9     8    13   1
    10     9    10   1
    11     9    11   1
    12    11    12   1
    13    11    13   1
    14    13    14   1
    15    14    15  am
    16    14    21   1
    17    15    16   2
    18    15    17  am
    19    17    18  am
    20    18    19   2
    21    18    20   1
    22    20    21   2
    23     6    22   1
    24     6    23   1
    25     7    24   1
    26     9    25   1
    27    10    26   1
    28    11    27   1
    29    12    28   1
    30    13    29   1
    31    17    30   1
    32    20    31   1
    33    21    32   1
@<TRIPOS>SUBSTRUCTURE
     1  MOL      6

