@<TRIPOS>MOLECULE
1loq_ligand_001
    32    33
SMALL
GAST_HUCK
****
This file was generated by PARSER (from files_GN.cpp)

@<TRIPOS>ATOM
      1 O3P        38.9711   31.5645   35.0802 O.co2       1 MOL      -0.5537
      2 P          39.6758   32.8202   35.1421 P.3         1 MOL       0.2008
      3 O1P        41.0770   32.5945   34.9385 O.co2       1 MOL      -0.5537
      4 O2P        39.1564   33.6063   34.0476 O.co2       1 MOL      -0.5537
      5 O5'        39.2879   33.5310   36.4742 O.3         1 MOL      -0.2734
      6 C5'        40.2151   34.4654   37.0708 C.3         1 MOL       0.1072
      7 C4'        39.4659   35.6855   37.6523 C.3         1 MOL       0.1182
      8 O4'        40.4101   36.5457   38.2992 O.3         1 MOL      -0.3363
      9 C3'        38.7433   36.5815   36.6190 C.3         1 MOL       0.1149
     10 O3'        37.3960   36.1557   36.4349 O.3         1 MOL      -0.3864
     11 C2'        38.8537   38.0019   37.2111 C.3         1 MOL       0.1387
     12 O2'        37.6077   38.5324   37.6559 O.3         1 MOL      -0.3836
     13 C1'        39.8235   37.8540   38.4070 C.3         1 MOL       0.2059
     14 N1         40.8283   38.9086   38.4667 N.am        1 MOL      -0.1592
     15 C2         41.9020   38.9221   37.6452 C.2         1 MOL       0.3328
     16 O2         42.1345   38.0589   36.8182 O.2         1 MOL      -0.3815
     17 N3         42.7896   39.9147   37.7186 N.am        1 MOL      -0.1865
     18 C4         42.6292   40.9319   38.5647 C.2         1 MOL       0.1822
     19 O4         43.4611   41.8262   38.5790 O.2         1 MOL      -0.4124
     20 C5         41.5537   40.9665   39.3900 C.2         1 MOL       0.0062
     21 C6         40.6636   39.9545   39.3308 C.2         1 MOL       0.0591
     22 H1         40.9834   34.8245   36.3760 H           1 MOL       0.0639
     23 H2         40.7247   33.9521   37.8952 H           1 MOL       0.0639
     24 H3         38.7494   35.3370   38.4018 H           1 MOL       0.0650
     25 H4         39.2685   36.5472   35.6638 H           1 MOL       0.0648
     26 H5         36.9267   36.9038   35.9933 H           1 MOL       0.2100
     27 H6         39.2501   38.6822   36.4592 H           1 MOL       0.0676
     28 H7         37.0289   38.5757   36.8739 H           1 MOL       0.2101
     29 H8         39.2438   37.8233   39.3430 H           1 MOL       0.0997
     30 H9         43.5619   39.9050   37.1321 H           1 MOL       0.2259
     31 H10        41.4076   41.7274   40.0154 H           1 MOL       0.0258
     32 H11        39.8779   39.9874   39.9319 H           1 MOL       0.1178
@<TRIPOS>BOND
     1     2     1  ar
     2     2     3  ar
     3     2     4  ar
     4     2     5   1
     5     5     6   1
     6     6     7   1
     7     7     8   1
     8     7     9   1
     9     8    13   1
    10     9    10   1
    11     9    11   1
    12    11    12   1
    13    11    13   1
    14    13    14   1
    15    14    15  am
    16    14    21   1
    17    15    16   2
    18    15    17  am
    19    17    18  am
    20    18    19   2
    21    18    20   1
    22    20    21   2
    23     6    22   1
    24     6    23   1
    25     7    24   1
    26     9    25   1
    27    10    26   1
    28    11    27   1
    29    12    28   1
    30    13    29   1
    31    17    30   1
    32    20    31   1
    33    21    32   1
@<TRIPOS>SUBSTRUCTURE
     1  MOL      6

