@<TRIPOS>MOLECULE
1loq_ligand_021
    32    33
SMALL
GAST_HUCK
****
This file was generated by PARSER (from files_GN.cpp)

@<TRIPOS>ATOM
      1 O3P        36.7034   35.8324   33.8995 O.co2       1 MOL      -0.5537
      2 P          37.7822   36.0626   34.8269 P.3         1 MOL       0.2008
      3 O1P        38.2076   37.4257   34.6006 O.co2       1 MOL      -0.5537
      4 O2P        37.2497   35.9310   36.1643 O.co2       1 MOL      -0.5537
      5 O5'        38.9363   35.1006   34.4279 O.3         1 MOL      -0.2734
      6 C5'        39.7239   34.4469   35.4515 C.3         1 MOL       0.1072
      7 C4'        40.4997   35.3425   36.4738 C.3         1 MOL       0.1182
      8 O4'        40.5709   36.7008   36.0141 O.3         1 MOL      -0.3363
      9 C3'        39.9246   35.3749   37.9153 C.3         1 MOL       0.1149
     10 O3'        40.8478   34.7918   38.8362 O.3         1 MOL      -0.3864
     11 C2'        39.7188   36.8772   38.1754 C.3         1 MOL       0.1387
     12 O2'        40.0047   37.2566   39.5242 O.3         1 MOL      -0.3836
     13 C1'        40.6735   37.5519   37.1609 C.3         1 MOL       0.2059
     14 N1         40.4731   38.9419   36.7714 N.am        1 MOL      -0.1592
     15 C2         41.3986   39.5608   36.0022 C.2         1 MOL       0.3328
     16 O2         42.4168   39.0104   35.5982 O.2         1 MOL      -0.3815
     17 N3         41.2408   40.8391   35.6449 N.am        1 MOL      -0.1865
     18 C4         40.1826   41.5474   36.0354 C.2         1 MOL       0.1822
     19 O4         40.0877   42.7210   35.6949 O.2         1 MOL      -0.4124
     20 C5         39.2263   40.9702   36.8111 C.2         1 MOL       0.0062
     21 C6         39.3908   39.6823   37.1814 C.2         1 MOL       0.0591
     22 H1         40.4675   33.8775   34.8810 H           1 MOL       0.0639
     23 H2         39.1113   33.7046   35.9691 H           1 MOL       0.0639
     24 H3         41.5328   34.9724   36.5191 H           1 MOL       0.0650
     25 H4         38.9747   34.8407   38.0031 H           1 MOL       0.0648
     26 H5         40.4159   34.8717   39.7144 H           1 MOL       0.2100
     27 H6         38.6736   37.1199   37.9513 H           1 MOL       0.0676
     28 H7         39.8094   38.2230   39.5661 H           1 MOL       0.2101
     29 H8         41.6879   37.4702   37.5688 H           1 MOL       0.0997
     30 H9         41.9234   41.2683   35.0990 H           1 MOL       0.2259
     31 H10        38.4260   41.4845   37.1052 H           1 MOL       0.0258
     32 H11        38.6957   39.2910   37.7723 H           1 MOL       0.1178
@<TRIPOS>BOND
     1     2     1  ar
     2     2     3  ar
     3     2     4  ar
     4     2     5   1
     5     5     6   1
     6     6     7   1
     7     7     8   1
     8     7     9   1
     9     8    13   1
    10     9    10   1
    11     9    11   1
    12    11    12   1
    13    11    13   1
    14    13    14   1
    15    14    15  am
    16    14    21   1
    17    15    16   2
    18    15    17  am
    19    17    18  am
    20    18    19   2
    21    18    20   1
    22    20    21   2
    23     6    22   1
    24     6    23   1
    25     7    24   1
    26     9    25   1
    27    10    26   1
    28    11    27   1
    29    12    28   1
    30    13    29   1
    31    17    30   1
    32    20    31   1
    33    21    32   1
@<TRIPOS>SUBSTRUCTURE
     1  MOL      6

