@<TRIPOS>MOLECULE
1loq_ligand_031
    32    33
SMALL
GAST_HUCK
****
This file was generated by PARSER (from files_GN.cpp)

@<TRIPOS>ATOM
      1 O3P        42.1120   40.7423   37.5481 O.co2       1 MOL      -0.5537
      2 P          41.3822   39.5390   37.2468 P.3         1 MOL       0.2008
      3 O1P        40.1637   39.8955   36.5675 O.co2       1 MOL      -0.5537
      4 O2P        42.2123   38.7611   36.3659 O.co2       1 MOL      -0.5537
      5 O5'        41.1932   38.6966   38.5442 O.3         1 MOL      -0.2734
      6 C5'        39.8931   38.1830   38.8963 C.3         1 MOL       0.1072
      7 C4'        39.3762   36.9761   38.0691 C.3         1 MOL       0.1182
      8 O4'        38.7763   37.3941   36.8419 O.3         1 MOL      -0.3363
      9 C3'        40.4359   35.9450   37.6316 C.3         1 MOL       0.1149
     10 O3'        40.8171   35.0577   38.6826 O.3         1 MOL      -0.3864
     11 C2'        39.7698   35.2430   36.4264 C.3         1 MOL       0.1387
     12 O2'        39.2809   33.9396   36.7566 O.3         1 MOL      -0.3836
     13 C1'        38.6225   36.2168   36.0292 C.3         1 MOL       0.2059
     14 N1         38.5891   36.6213   34.6308 N.am        1 MOL      -0.1592
     15 C2         39.6332   37.2554   34.0499 C.2         1 MOL       0.3328
     16 O2         40.6801   37.5028   34.6269 O.2         1 MOL      -0.3815
     17 N3         39.5473   37.6642   32.7850 N.am        1 MOL      -0.1865
     18 C4         38.4483   37.4739   32.0616 C.2         1 MOL       0.1822
     19 O4         38.4274   37.8705   30.9054 O.2         1 MOL      -0.4124
     20 C5         37.3663   36.8588   32.6120 C.2         1 MOL       0.0062
     21 C6         37.4526   36.4347   33.8889 C.2         1 MOL       0.0591
     22 H1         39.1557   38.9890   38.8625 H           1 MOL       0.0639
     23 H2         39.9625   37.8611   39.9391 H           1 MOL       0.0639
     24 H3         38.6034   36.4801   38.6635 H           1 MOL       0.0650
     25 H4         41.3367   36.4608   37.2860 H           1 MOL       0.0648
     26 H5         39.9834   34.6512   39.0079 H           1 MOL       0.2100
     27 H6         40.4890   35.1122   35.6159 H           1 MOL       0.0676
     28 H7         40.0799   33.3769   36.8406 H           1 MOL       0.2101
     29 H8         37.6745   35.7549   36.3331 H           1 MOL       0.0997
     30 H9         40.3037   38.1186   32.3823 H           1 MOL       0.2259
     31 H10        36.5292   36.7346   32.0871 H           1 MOL       0.0258
     32 H11        36.6541   35.9921   34.2858 H           1 MOL       0.1178
@<TRIPOS>BOND
     1     2     1  ar
     2     2     3  ar
     3     2     4  ar
     4     2     5   1
     5     5     6   1
     6     6     7   1
     7     7     8   1
     8     7     9   1
     9     8    13   1
    10     9    10   1
    11     9    11   1
    12    11    12   1
    13    11    13   1
    14    13    14   1
    15    14    15  am
    16    14    21   1
    17    15    16   2
    18    15    17  am
    19    17    18  am
    20    18    19   2
    21    18    20   1
    22    20    21   2
    23     6    22   1
    24     6    23   1
    25     7    24   1
    26     9    25   1
    27    10    26   1
    28    11    27   1
    29    12    28   1
    30    13    29   1
    31    17    30   1
    32    20    31   1
    33    21    32   1
@<TRIPOS>SUBSTRUCTURE
     1  MOL      6

