@<TRIPOS>MOLECULE
1loq_ligand_000
    32    33
SMALL
GAST_HUCK
****
This file was generated by PARSER (from files_GN.cpp)

@<TRIPOS>ATOM
      1 O3P        39.0392   33.3937   34.1494 O.co2       1 MOL      -0.5537
      2 P          39.7240   32.4763   35.0292 P.3         1 MOL       0.2008
      3 O1P        39.0484   31.2129   34.8909 O.co2       1 MOL      -0.5537
      4 O2P        41.0878   32.2695   34.5870 O.co2       1 MOL      -0.5537
      5 O5'        39.6425   32.8843   36.5294 O.3         1 MOL      -0.2734
      6 C5'        40.6694   33.7479   37.0669 C.3         1 MOL       0.1072
      7 C4'        40.3938   35.2685   36.8993 C.3         1 MOL       0.1182
      8 O4'        40.2280   35.6455   35.5191 O.3         1 MOL      -0.3363
      9 C3'        39.1503   35.7697   37.6787 C.3         1 MOL       0.1149
     10 O3'        39.5378   36.7089   38.6871 O.3         1 MOL      -0.3864
     11 C2'        38.2834   36.4061   36.5772 C.3         1 MOL       0.1387
     12 O2'        37.5709   37.5453   37.0634 O.3         1 MOL      -0.3836
     13 C1'        39.3151   36.7601   35.4788 C.3         1 MOL       0.2059
     14 N1         38.9685   37.0233   34.0844 N.am        1 MOL      -0.1592
     15 C2         37.8016   36.7031   33.4679 C.2         1 MOL       0.3328
     16 O2         36.8481   36.1528   34.0030 O.2         1 MOL      -0.3815
     17 N3         37.6334   36.9630   32.1712 N.am        1 MOL      -0.1865
     18 C4         38.5804   37.5453   31.4420 C.2         1 MOL       0.1822
     19 O4         38.3710   37.7298   30.2493 O.2         1 MOL      -0.4124
     20 C5         39.7546   37.9101   32.0151 C.2         1 MOL       0.0062
     21 C6         39.9408   37.6297   33.3170 C.2         1 MOL       0.0591
     22 H1         41.6677   33.5082   36.6855 H           1 MOL       0.0639
     23 H2         40.6985   33.5316   38.1443 H           1 MOL       0.0639
     24 H3         41.2836   35.7979   37.2653 H           1 MOL       0.0650
     25 H4         38.6057   34.9522   38.1623 H           1 MOL       0.0648
     26 H5         38.6937   37.1134   38.9871 H           1 MOL       0.2100
     27 H6         37.5772   35.6390   36.2491 H           1 MOL       0.0676
     28 H7         36.8855   37.7377   36.3987 H           1 MOL       0.2101
     29 H8         39.8384   37.6467   35.8639 H           1 MOL       0.0997
     30 H9         36.7973   36.7188   31.7501 H           1 MOL       0.2259
     31 H10        40.4561   38.3787   31.4864 H           1 MOL       0.0258
     32 H11        40.8069   37.8986   33.7247 H           1 MOL       0.1178
@<TRIPOS>BOND
     1     2     1  ar
     2     2     3  ar
     3     2     4  ar
     4     2     5   1
     5     5     6   1
     6     6     7   1
     7     7     8   1
     8     7     9   1
     9     8    13   1
    10     9    10   1
    11     9    11   1
    12    11    12   1
    13    11    13   1
    14    13    14   1
    15    14    15  am
    16    14    21   1
    17    15    16   2
    18    15    17  am
    19    17    18  am
    20    18    19   2
    21    18    20   1
    22    20    21   2
    23     6    22   1
    24     6    23   1
    25     7    24   1
    26     9    25   1
    27    10    26   1
    28    11    27   1
    29    12    28   1
    30    13    29   1
    31    17    30   1
    32    20    31   1
    33    21    32   1
@<TRIPOS>SUBSTRUCTURE
     1  MOL      6

