@<TRIPOS>MOLECULE
1loq_ligand_003
    32    33
SMALL
GAST_HUCK
****
This file was generated by PARSER (from files_GN.cpp)

@<TRIPOS>ATOM
      1 O3P        40.3658   34.5899   34.7801 O.co2       1 MOL      -0.5537
      2 P          40.5971   33.8085   35.9711 P.3         1 MOL       0.2008
      3 O1P        39.4652   32.9401   36.1880 O.co2       1 MOL      -0.5537
      4 O2P        41.7280   32.9555   35.6766 O.co2       1 MOL      -0.5537
      5 O5'        40.9142   34.6901   37.2203 O.3         1 MOL      -0.2734
      6 C5'        39.8281   35.1061   38.0812 C.3         1 MOL       0.1072
      7 C4'        39.4573   36.6085   38.0074 C.3         1 MOL       0.1182
      8 O4'        40.5601   37.4524   38.3506 O.3         1 MOL      -0.3363
      9 C3'        39.0383   37.1282   36.6223 C.3         1 MOL       0.1149
     10 O3'        37.7781   36.6114   36.1752 O.3         1 MOL      -0.3864
     11 C2'        39.1215   38.6568   36.8182 C.3         1 MOL       0.1387
     12 O2'        37.8778   39.1918   37.2978 O.3         1 MOL      -0.3836
     13 C1'        40.2247   38.7858   37.9207 C.3         1 MOL       0.2059
     14 N1         41.4848   39.4435   37.5908 N.am        1 MOL      -0.1592
     15 C2         42.2437   40.0466   38.5382 C.2         1 MOL       0.3328
     16 O2         41.9182   40.1408   39.7147 O.2         1 MOL      -0.3815
     17 N3         43.4533   40.5187   38.2411 N.am        1 MOL      -0.1865
     18 C4         43.9581   40.4201   37.0153 C.2         1 MOL       0.1822
     19 O4         45.0972   40.8119   36.8099 O.2         1 MOL      -0.4124
     20 C5         43.2387   39.8136   36.0294 C.2         1 MOL       0.0062
     21 C6         42.0225   39.3166   36.3359 C.2         1 MOL       0.0591
     22 H1         40.1632   34.9142   39.0988 H           1 MOL       0.0639
     23 H2         38.9073   34.5307   37.9485 H           1 MOL       0.0639
     24 H3         38.6434   36.7873   38.7237 H           1 MOL       0.0650
     25 H4         39.7968   36.8466   35.8824 H           1 MOL       0.0648
     26 H5         37.1102   37.3220   36.2892 H           1 MOL       0.2100
     27 H6         39.3839   39.1655   35.8867 H           1 MOL       0.0676
     28 H7         37.1983   38.9774   36.6179 H           1 MOL       0.2101
     29 H8         39.7604   39.2781   38.7843 H           1 MOL       0.0997
     30 H9         43.9930   40.9162   38.9419 H           1 MOL       0.2259
     31 H10        43.6137   39.6964   35.1109 H           1 MOL       0.0258
     32 H11        41.5335   38.8271   35.6258 H           1 MOL       0.1178
@<TRIPOS>BOND
     1     2     1  ar
     2     2     3  ar
     3     2     4  ar
     4     2     5   1
     5     5     6   1
     6     6     7   1
     7     7     8   1
     8     7     9   1
     9     8    13   1
    10     9    10   1
    11     9    11   1
    12    11    12   1
    13    11    13   1
    14    13    14   1
    15    14    15  am
    16    14    21   1
    17    15    16   2
    18    15    17  am
    19    17    18  am
    20    18    19   2
    21    18    20   1
    22    20    21   2
    23     6    22   1
    24     6    23   1
    25     7    24   1
    26     9    25   1
    27    10    26   1
    28    11    27   1
    29    12    28   1
    30    13    29   1
    31    17    30   1
    32    20    31   1
    33    21    32   1
@<TRIPOS>SUBSTRUCTURE
     1  MOL      6

