@<TRIPOS>MOLECULE
1loq_ligand_002
    32    33
SMALL
GAST_HUCK
****
This file was generated by PARSER (from files_GN.cpp)

@<TRIPOS>ATOM
      1 O3P        41.1347   32.2202   34.7150 O.co2       1 MOL      -0.5537
      2 P          39.7405   32.3946   35.0404 P.3         1 MOL       0.2008
      3 O1P        39.1098   33.2887   34.1053 O.co2       1 MOL      -0.5537
      4 O2P        39.0956   31.1182   34.8782 O.co2       1 MOL      -0.5537
      5 O5'        39.5297   32.8263   36.5225 O.3         1 MOL      -0.2734
      6 C5'        40.1156   34.0572   36.9917 C.3         1 MOL       0.1072
      7 C4'        39.1752   35.2779   36.8270 C.3         1 MOL       0.1182
      8 O4'        39.7064   36.3980   37.5504 O.3         1 MOL      -0.3363
      9 C3'        39.0036   35.7995   35.3856 C.3         1 MOL       0.1149
     10 O3'        37.8347   35.2506   34.7701 O.3         1 MOL      -0.3864
     11 C2'        39.0376   37.3405   35.5401 C.3         1 MOL       0.1387
     12 O2'        37.9758   38.0126   34.8532 O.3         1 MOL      -0.3836
     13 C1'        39.0413   37.5871   37.0760 C.3         1 MOL       0.2059
     14 N1         39.6811   38.7815   37.6193 N.am        1 MOL      -0.1592
     15 C2         40.0426   38.8330   38.9267 C.2         1 MOL       0.3328
     16 O2         39.8561   37.9182   39.7254 O.2         1 MOL      -0.3815
     17 N3         40.6462   39.9094   39.4224 N.am        1 MOL      -0.1865
     18 C4         40.8975   40.9740   38.6723 C.2         1 MOL       0.1822
     19 O4         41.4755   41.9279   39.1696 O.2         1 MOL      -0.4124
     20 C5         40.4891   41.0044   37.3752 C.2         1 MOL       0.0062
     21 C6         39.8791   39.9123   36.8708 C.2         1 MOL       0.0591
     22 H1         41.1027   34.2749   36.5638 H           1 MOL       0.0639
     23 H2         40.2668   33.9135   38.0633 H           1 MOL       0.0639
     24 H3         38.1927   35.0269   37.2488 H           1 MOL       0.0650
     25 H4         39.8588   35.5028   34.7619 H           1 MOL       0.0648
     26 H5         37.0622   35.7540   35.1586 H           1 MOL       0.2100
     27 H6         39.9839   37.6992   35.1201 H           1 MOL       0.0676
     28 H7         37.1982   37.9874   35.4543 H           1 MOL       0.2101
     29 H8         38.0082   37.5817   37.4361 H           1 MOL       0.0997
     30 H9         40.9239   39.9131   40.3560 H           1 MOL       0.2259
     31 H10        40.6106   41.8178   36.8159 H           1 MOL       0.0258
     32 H11        39.5512   39.9638   35.9369 H           1 MOL       0.1178
@<TRIPOS>BOND
     1     2     1  ar
     2     2     3  ar
     3     2     4  ar
     4     2     5   1
     5     5     6   1
     6     6     7   1
     7     7     8   1
     8     7     9   1
     9     8    13   1
    10     9    10   1
    11     9    11   1
    12    11    12   1
    13    11    13   1
    14    13    14   1
    15    14    15  am
    16    14    21   1
    17    15    16   2
    18    15    17  am
    19    17    18  am
    20    18    19   2
    21    18    20   1
    22    20    21   2
    23     6    22   1
    24     6    23   1
    25     7    24   1
    26     9    25   1
    27    10    26   1
    28    11    27   1
    29    12    28   1
    30    13    29   1
    31    17    30   1
    32    20    31   1
    33    21    32   1
@<TRIPOS>SUBSTRUCTURE
     1  MOL      6

