@<TRIPOS>MOLECULE
1loq_ligand_022
    32    33
SMALL
GAST_HUCK
****
This file was generated by PARSER (from files_GN.cpp)

@<TRIPOS>ATOM
      1 O3P        41.8159   39.8357   38.4006 O.co2       1 MOL      -0.5537
      2 P          40.4199   39.8423   38.7762 P.3         1 MOL       0.2008
      3 O1P        40.2888   39.8755   40.2130 O.co2       1 MOL      -0.5537
      4 O2P        39.8030   41.0268   38.2354 O.co2       1 MOL      -0.5537
      5 O5'        39.6545   38.6036   38.2090 O.3         1 MOL      -0.2734
      6 C5'        40.2360   37.3024   38.4518 C.3         1 MOL       0.1072
      7 C4'        39.3169   36.1714   37.8818 C.3         1 MOL       0.1182
      8 O4'        38.1595   36.7305   37.2458 O.3         1 MOL      -0.3363
      9 C3'        40.0026   35.2257   36.8523 C.3         1 MOL       0.1149
     10 O3'        39.5619   33.8796   37.0319 O.3         1 MOL      -0.3864
     11 C2'        39.5134   35.7992   35.5178 C.3         1 MOL       0.1387
     12 O2'        39.5359   34.8557   34.4487 O.3         1 MOL      -0.3836
     13 C1'        38.0923   36.2710   35.8889 C.3         1 MOL       0.2059
     14 N1         37.5856   37.2690   34.9721 N.am        1 MOL      -0.1592
     15 C2         36.9033   36.9268   33.8647 C.2         1 MOL       0.3328
     16 O2         36.6955   35.7634   33.5449 O.2         1 MOL      -0.3815
     17 N3         36.4522   37.8767   33.0431 N.am        1 MOL      -0.1865
     18 C4         36.6511   39.1734   33.2918 C.2         1 MOL       0.1822
     19 O4         36.1911   40.0136   32.5309 O.2         1 MOL      -0.4124
     20 C5         37.3682   39.5546   34.3830 C.2         1 MOL       0.0062
     21 C6         37.8343   38.5944   35.2031 C.2         1 MOL       0.0591
     22 H1         40.3583   37.1271   39.5203 H           1 MOL       0.0639
     23 H2         41.2239   37.2507   37.9860 H           1 MOL       0.0639
     24 H3         38.9353   35.5692   38.7107 H           1 MOL       0.0650
     25 H4         41.0908   35.2363   36.9101 H           1 MOL       0.0648
     26 H5         40.3747   33.3406   36.9218 H           1 MOL       0.2100
     27 H6         40.1359   36.6591   35.2414 H           1 MOL       0.0676
     28 H7         39.5882   33.9706   34.8811 H           1 MOL       0.2101
     29 H8         37.4200   35.3947   35.9238 H           1 MOL       0.0997
     30 H9         35.9682   37.6216   32.2370 H           1 MOL       0.2259
     31 H10        37.5590   40.5147   34.5662 H           1 MOL       0.0258
     32 H11        38.3836   38.8839   35.9848 H           1 MOL       0.1178
@<TRIPOS>BOND
     1     2     1  ar
     2     2     3  ar
     3     2     4  ar
     4     2     5   1
     5     5     6   1
     6     6     7   1
     7     7     8   1
     8     7     9   1
     9     8    13   1
    10     9    10   1
    11     9    11   1
    12    11    12   1
    13    11    13   1
    14    13    14   1
    15    14    15  am
    16    14    21   1
    17    15    16   2
    18    15    17  am
    19    17    18  am
    20    18    19   2
    21    18    20   1
    22    20    21   2
    23     6    22   1
    24     6    23   1
    25     7    24   1
    26     9    25   1
    27    10    26   1
    28    11    27   1
    29    12    28   1
    30    13    29   1
    31    17    30   1
    32    20    31   1
    33    21    32   1
@<TRIPOS>SUBSTRUCTURE
     1  MOL      6

