@<TRIPOS>MOLECULE
1loq_ligand_038
    32    33
SMALL
GAST_HUCK
****
This file was generated by PARSER (from files_GN.cpp)

@<TRIPOS>ATOM
      1 O3P        40.9381   41.6855   36.3377 O.co2       1 MOL      -0.5537
      2 P          42.2435   41.5001   35.7527 P.3         1 MOL       0.2008
      3 O1P        42.4394   42.4086   34.6427 O.co2       1 MOL      -0.5537
      4 O2P        43.2308   41.8299   36.7563 O.co2       1 MOL      -0.5537
      5 O5'        42.5287   40.0586   35.2756 O.3         1 MOL      -0.2734
      6 C5'        41.4486   39.2753   34.7195 C.3         1 MOL       0.1072
      7 C4'        40.4838   38.6059   35.7576 C.3         1 MOL       0.1182
      8 O4'        40.1618   37.2735   35.3086 O.3         1 MOL      -0.3363
      9 C3'        40.9698   38.4417   37.2245 C.3         1 MOL       0.1149
     10 O3'        40.2433   39.3032   38.0961 O.3         1 MOL      -0.3864
     11 C2'        40.7077   36.9570   37.5264 C.3         1 MOL       0.1387
     12 O2'        40.2515   36.7638   38.8670 O.3         1 MOL      -0.3836
     13 C1'        39.7233   36.4809   36.4252 C.3         1 MOL       0.2059
     14 N1         39.6830   35.0589   36.0811 N.am        1 MOL      -0.1592
     15 C2         39.1146   34.6561   34.9228 C.2         1 MOL       0.3328
     16 O2         38.6117   35.4195   34.1118 O.2         1 MOL      -0.3815
     17 N3         39.0735   33.3640   34.5957 N.am        1 MOL      -0.1865
     18 C4         39.5256   32.4185   35.4177 C.2         1 MOL       0.1822
     19 O4         39.4880   31.2516   35.0465 O.2         1 MOL      -0.4124
     20 C5         40.0777   32.7701   36.6151 C.2         1 MOL       0.0062
     21 C6         40.1481   34.0766   36.9224 C.2         1 MOL       0.0591
     22 H1         41.9516   38.4876   34.1643 H           1 MOL       0.0639
     23 H2         40.8709   39.8342   33.9724 H           1 MOL       0.0639
     24 H3         39.5499   39.1755   35.7611 H           1 MOL       0.0650
     25 H4         42.0375   38.6439   37.3532 H           1 MOL       0.0648
     26 H5         40.5584   39.0910   39.0057 H           1 MOL       0.2100
     27 H6         41.6541   36.4149   37.3983 H           1 MOL       0.0676
     28 H7         39.5731   36.0361   38.8132 H           1 MOL       0.2101
     29 H8         38.7071   36.7829   36.7030 H           1 MOL       0.0997
     30 H9         38.7026   33.0849   33.7365 H           1 MOL       0.2259
     31 H10        40.3767   32.0884   37.2606 H           1 MOL       0.0258
     32 H11        40.5189   34.3030   37.8082 H           1 MOL       0.1178
@<TRIPOS>BOND
     1     2     1  ar
     2     2     3  ar
     3     2     4  ar
     4     2     5   1
     5     5     6   1
     6     6     7   1
     7     7     8   1
     8     7     9   1
     9     8    13   1
    10     9    10   1
    11     9    11   1
    12    11    12   1
    13    11    13   1
    14    13    14   1
    15    14    15  am
    16    14    21   1
    17    15    16   2
    18    15    17  am
    19    17    18  am
    20    18    19   2
    21    18    20   1
    22    20    21   2
    23     6    22   1
    24     6    23   1
    25     7    24   1
    26     9    25   1
    27    10    26   1
    28    11    27   1
    29    12    28   1
    30    13    29   1
    31    17    30   1
    32    20    31   1
    33    21    32   1
@<TRIPOS>SUBSTRUCTURE
     1  MOL      6

