@<TRIPOS>MOLECULE
1loq_ligand_029
    32    33
SMALL
GAST_HUCK
****
This file was generated by PARSER (from files_GN.cpp)

@<TRIPOS>ATOM
      1 O3P        38.3419   37.1725   34.7706 O.co2       1 MOL      -0.5537
      2 P          37.8658   35.8237   34.9424 P.3         1 MOL       0.2008
      3 O1P        37.5123   35.6201   36.3296 O.co2       1 MOL      -0.5537
      4 O2P        36.6671   35.7195   34.1437 O.co2       1 MOL      -0.5537
      5 O5'        38.9095   34.8305   34.3301 O.3         1 MOL      -0.2734
      6 C5'        39.5848   33.8813   35.1850 C.3         1 MOL       0.1072
      7 C4'        40.5467   34.5175   36.2416 C.3         1 MOL       0.1182
      8 O4'        40.5627   35.9481   36.1321 O.3         1 MOL      -0.3363
      9 C3'        40.2328   34.1988   37.7339 C.3         1 MOL       0.1149
     10 O3'        41.2159   33.3167   38.2914 O.3         1 MOL      -0.3864
     11 C2'        40.2472   35.5786   38.4312 C.3         1 MOL       0.1387
     12 O2'        40.9391   35.5693   39.6763 O.3         1 MOL      -0.3836
     13 C1'        40.9615   36.4885   37.4005 C.3         1 MOL       0.2059
     14 N1         40.6869   37.9186   37.4511 N.am        1 MOL      -0.1592
     15 C2         39.4374   38.4298   37.3654 C.2         1 MOL       0.3328
     16 O2         38.4297   37.7267   37.3345 O.2         1 MOL      -0.3815
     17 N3         39.2640   39.7510   37.2687 N.am        1 MOL      -0.1865
     18 C4         40.2918   40.5942   37.2765 C.2         1 MOL       0.1822
     19 O4         40.0607   41.7880   37.2081 O.2         1 MOL      -0.4124
     20 C5         41.5626   40.1304   37.3906 C.2         1 MOL       0.0062
     21 C6         41.7427   38.7985   37.4741 C.2         1 MOL       0.0591
     22 H1         40.1940   33.2737   34.5100 H           1 MOL       0.0639
     23 H2         38.8736   33.1918   35.6394 H           1 MOL       0.0639
     24 H3         41.5640   34.1737   36.0225 H           1 MOL       0.0650
     25 H4         39.2544   33.7369   37.8731 H           1 MOL       0.0648
     26 H5         40.9685   32.4220   37.9734 H           1 MOL       0.2100
     27 H6         39.2206   35.9065   38.6078 H           1 MOL       0.0676
     28 H7         40.9022   34.6402   39.9804 H           1 MOL       0.2101
     29 H8         42.0357   36.2923   37.4977 H           1 MOL       0.0997
     30 H9         38.3701   40.1064   37.1628 H           1 MOL       0.2259
     31 H10        42.3409   40.7525   37.3832 H           1 MOL       0.0258
     32 H11        42.6811   38.4719   37.5451 H           1 MOL       0.1178
@<TRIPOS>BOND
     1     2     1  ar
     2     2     3  ar
     3     2     4  ar
     4     2     5   1
     5     5     6   1
     6     6     7   1
     7     7     8   1
     8     7     9   1
     9     8    13   1
    10     9    10   1
    11     9    11   1
    12    11    12   1
    13    11    13   1
    14    13    14   1
    15    14    15  am
    16    14    21   1
    17    15    16   2
    18    15    17  am
    19    17    18  am
    20    18    19   2
    21    18    20   1
    22    20    21   2
    23     6    22   1
    24     6    23   1
    25     7    24   1
    26     9    25   1
    27    10    26   1
    28    11    27   1
    29    12    28   1
    30    13    29   1
    31    17    30   1
    32    20    31   1
    33    21    32   1
@<TRIPOS>SUBSTRUCTURE
     1  MOL      6

