@<TRIPOS>MOLECULE
1loq_ligand_041
    32    33
SMALL
GAST_HUCK
****
This file was generated by PARSER (from files_GN.cpp)

@<TRIPOS>ATOM
      1 O3P        40.7845   37.4968   38.0185 O.co2       1 MOL      -0.5537
      2 P          39.7553   38.3788   38.5047 P.3         1 MOL       0.2008
      3 O1P        40.0781   38.4862   39.9008 O.co2       1 MOL      -0.5537
      4 O2P        39.8869   39.6730   37.9007 O.co2       1 MOL      -0.5537
      5 O5'        38.3291   37.7492   38.4160 O.3         1 MOL      -0.2734
      6 C5'        37.5310   37.9681   37.2338 C.3         1 MOL       0.1072
      7 C4'        37.9565   37.2793   35.9071 C.3         1 MOL       0.1182
      8 O4'        38.8346   38.1318   35.1555 O.3         1 MOL      -0.3363
      9 C3'        38.6677   35.9021   36.0477 C.3         1 MOL       0.1149
     10 O3'        37.8643   34.8396   35.5385 O.3         1 MOL      -0.3864
     11 C2'        39.9569   36.0921   35.2167 C.3         1 MOL       0.1387
     12 O2'        40.3727   34.9270   34.5117 O.3         1 MOL      -0.3836
     13 C1'        39.6059   37.2813   34.2971 C.3         1 MOL       0.2059
     14 N1         40.7317   38.0030   33.7115 N.am        1 MOL      -0.1592
     15 C2         40.9342   38.0616   32.3762 C.2         1 MOL       0.3328
     16 O2         40.2111   37.5211   31.5502 O.2         1 MOL      -0.3815
     17 N3         41.9603   38.7533   31.8819 N.am        1 MOL      -0.1865
     18 C4         42.8031   39.4123   32.6711 C.2         1 MOL       0.1822
     19 O4         43.7293   40.0254   32.1644 O.2         1 MOL      -0.4124
     20 C5         42.6249   39.4039   34.0197 C.2         1 MOL       0.0062
     21 C6         41.5902   38.7018   34.5208 C.2         1 MOL       0.0591
     22 H1         37.3948   39.0420   37.0576 H           1 MOL       0.0639
     23 H2         36.5454   37.5812   37.4928 H           1 MOL       0.0639
     24 H3         37.0570   37.1559   35.2892 H           1 MOL       0.0650
     25 H4         38.9150   35.6561   37.0812 H           1 MOL       0.0648
     26 H5         38.4107   34.0368   35.6782 H           1 MOL       0.2100
     27 H6         40.7835   36.3668   35.8660 H           1 MOL       0.0676
     28 H7         40.5574   34.2700   35.2198 H           1 MOL       0.2101
     29 H8         38.9365   36.8955   33.5187 H           1 MOL       0.0997
     30 H9         42.0909   38.7823   30.9206 H           1 MOL       0.2259
     31 H10        43.2269   39.9166   34.6200 H           1 MOL       0.0258
     32 H11        41.4622   38.7073   35.5071 H           1 MOL       0.1178
@<TRIPOS>BOND
     1     2     1  ar
     2     2     3  ar
     3     2     4  ar
     4     2     5   1
     5     5     6   1
     6     6     7   1
     7     7     8   1
     8     7     9   1
     9     8    13   1
    10     9    10   1
    11     9    11   1
    12    11    12   1
    13    11    13   1
    14    13    14   1
    15    14    15  am
    16    14    21   1
    17    15    16   2
    18    15    17  am
    19    17    18  am
    20    18    19   2
    21    18    20   1
    22    20    21   2
    23     6    22   1
    24     6    23   1
    25     7    24   1
    26     9    25   1
    27    10    26   1
    28    11    27   1
    29    12    28   1
    30    13    29   1
    31    17    30   1
    32    20    31   1
    33    21    32   1
@<TRIPOS>SUBSTRUCTURE
     1  MOL      6

