@<TRIPOS>MOLECULE
1loq_ligand_027
    32    33
SMALL
GAST_HUCK
****
This file was generated by PARSER (from files_GN.cpp)

@<TRIPOS>ATOM
      1 O3P        36.8767   38.8221   31.7444 O.co2       1 MOL      -0.5537
      2 P          37.6935   37.7856   32.3265 P.3         1 MOL       0.2008
      3 O1P        36.8478   36.6984   32.7487 O.co2       1 MOL      -0.5537
      4 O2P        38.5416   37.2853   31.2726 O.co2       1 MOL      -0.5537
      5 O5'        38.5935   38.3138   33.4871 O.3         1 MOL      -0.2734
      6 C5'        37.9665   39.0103   34.5907 C.3         1 MOL       0.1072
      7 C4'        38.2669   38.3362   35.9588 C.3         1 MOL       0.1182
      8 O4'        38.0728   36.9154   35.8858 O.3         1 MOL      -0.3363
      9 C3'        39.7135   38.5201   36.4569 C.3         1 MOL       0.1149
     10 O3'        39.9404   39.7975   37.0665 O.3         1 MOL      -0.3864
     11 C2'        39.8995   37.3277   37.4104 C.3         1 MOL       0.1387
     12 O2'        39.6429   37.6680   38.7720 O.3         1 MOL      -0.3836
     13 C1'        38.8744   36.2735   36.8984 C.3         1 MOL       0.2059
     14 N1         39.5381   35.0410   36.4953 N.am        1 MOL      -0.1592
     15 C2         39.6786   34.6379   35.2105 C.2         1 MOL       0.3328
     16 O2         39.1763   35.1969   34.2520 O.2         1 MOL      -0.3815
     17 N3         40.4486   33.5902   34.9170 N.am        1 MOL      -0.1865
     18 C4         41.0911   32.9052   35.8562 C.2         1 MOL       0.1822
     19 O4         41.8461   32.0067   35.5195 O.2         1 MOL      -0.4124
     20 C5         40.9054   33.2230   37.1690 C.2         1 MOL       0.0062
     21 C6         40.1314   34.2817   37.4691 C.2         1 MOL       0.0591
     22 H1         36.8798   39.1069   34.4967 H           1 MOL       0.0639
     23 H2         38.3634   40.0200   34.5978 H           1 MOL       0.0639
     24 H3         37.5775   38.7423   36.7133 H           1 MOL       0.0650
     25 H4         40.4083   38.4148   35.6136 H           1 MOL       0.0648
     26 H5         39.6051   39.7213   37.9903 H           1 MOL       0.2100
     27 H6         40.9333   36.9786   37.3464 H           1 MOL       0.0676
     28 H7         39.9693   36.9021   39.2889 H           1 MOL       0.2101
     29 H8         38.1591   36.0211   37.6927 H           1 MOL       0.0997
     30 H9         40.5647   33.3334   33.9847 H           1 MOL       0.2259
     31 H10        41.3275   32.6872   37.8898 H           1 MOL       0.0258
     32 H11        40.0154   34.5152   38.4316 H           1 MOL       0.1178
@<TRIPOS>BOND
     1     2     1  ar
     2     2     3  ar
     3     2     4  ar
     4     2     5   1
     5     5     6   1
     6     6     7   1
     7     7     8   1
     8     7     9   1
     9     8    13   1
    10     9    10   1
    11     9    11   1
    12    11    12   1
    13    11    13   1
    14    13    14   1
    15    14    15  am
    16    14    21   1
    17    15    16   2
    18    15    17  am
    19    17    18  am
    20    18    19   2
    21    18    20   1
    22    20    21   2
    23     6    22   1
    24     6    23   1
    25     7    24   1
    26     9    25   1
    27    10    26   1
    28    11    27   1
    29    12    28   1
    30    13    29   1
    31    17    30   1
    32    20    31   1
    33    21    32   1
@<TRIPOS>SUBSTRUCTURE
     1  MOL      6

