@<TRIPOS>MOLECULE
1loq_ligand_023
    32    33
SMALL
GAST_HUCK
****
This file was generated by PARSER (from files_GN.cpp)

@<TRIPOS>ATOM
      1 O3P        38.9813   37.3433   32.0260 O.co2       1 MOL      -0.5537
      2 P          40.1124   38.2448   32.0848 P.3         1 MOL       0.2008
      3 O1P        41.2991   37.5391   32.4957 O.co2       1 MOL      -0.5537
      4 O2P        40.3354   38.6851   30.7276 O.co2       1 MOL      -0.5537
      5 O5'        39.8184   39.5291   32.9111 O.3         1 MOL      -0.2734
      6 C5'        40.0108   39.5163   34.3437 C.3         1 MOL       0.1072
      7 C4'        38.8712   38.8409   35.1594 C.3         1 MOL       0.1182
      8 O4'        38.9416   37.4149   34.9865 O.3         1 MOL      -0.3363
      9 C3'        38.9540   39.0996   36.6850 C.3         1 MOL       0.1149
     10 O3'        37.6598   39.3988   37.2225 O.3         1 MOL      -0.3864
     11 C2'        39.5184   37.7745   37.2222 C.3         1 MOL       0.1387
     12 O2'        39.1583   37.5475   38.5831 O.3         1 MOL      -0.3836
     13 C1'        38.9268   36.7299   36.2512 C.3         1 MOL       0.2059
     14 N1         39.5288   35.4127   36.0658 N.am        1 MOL      -0.1592
     15 C2         40.5725   34.9145   36.7658 C.2         1 MOL       0.3328
     16 O2         41.0644   35.4626   37.7395 O.2         1 MOL      -0.3815
     17 N3         41.1442   33.7672   36.3977 N.am        1 MOL      -0.1865
     18 C4         40.7019   33.0693   35.3575 C.2         1 MOL       0.1822
     19 O4         41.3625   32.1140   34.9784 O.2         1 MOL      -0.4124
     20 C5         39.5895   33.4733   34.6941 C.2         1 MOL       0.0062
     21 C6         39.0112   34.6335   35.0620 C.2         1 MOL       0.0591
     22 H1         40.0447   40.5662   34.6349 H           1 MOL       0.0639
     23 H2         40.9788   39.0793   34.6103 H           1 MOL       0.0639
     24 H3         37.9178   39.1895   34.7627 H           1 MOL       0.0650
     25 H4         39.6120   39.9373   36.9382 H           1 MOL       0.0648
     26 H5         37.0154   38.8251   36.7600 H           1 MOL       0.2100
     27 H6         40.6041   37.8248   37.1342 H           1 MOL       0.0676
     28 H7         39.6310   36.7237   38.8323 H           1 MOL       0.2101
     29 H8         37.8794   36.5782   36.5402 H           1 MOL       0.0997
     30 H9         41.9303   33.4516   36.8723 H           1 MOL       0.2259
     31 H10        39.2095   32.9266   33.9559 H           1 MOL       0.0258
     32 H11        38.1943   34.9192   34.5675 H           1 MOL       0.1178
@<TRIPOS>BOND
     1     2     1  ar
     2     2     3  ar
     3     2     4  ar
     4     2     5   1
     5     5     6   1
     6     6     7   1
     7     7     8   1
     8     7     9   1
     9     8    13   1
    10     9    10   1
    11     9    11   1
    12    11    12   1
    13    11    13   1
    14    13    14   1
    15    14    15  am
    16    14    21   1
    17    15    16   2
    18    15    17  am
    19    17    18  am
    20    18    19   2
    21    18    20   1
    22    20    21   2
    23     6    22   1
    24     6    23   1
    25     7    24   1
    26     9    25   1
    27    10    26   1
    28    11    27   1
    29    12    28   1
    30    13    29   1
    31    17    30   1
    32    20    31   1
    33    21    32   1
@<TRIPOS>SUBSTRUCTURE
     1  MOL      6

