@<TRIPOS>MOLECULE
1loq_ligand_045
    32    33
SMALL
GAST_HUCK
****
This file was generated by PARSER (from files_GN.cpp)

@<TRIPOS>ATOM
      1 O3P        38.9661   33.3050   34.4126 O.co2       1 MOL      -0.5537
      2 P          39.7924   32.3051   35.0449 P.3         1 MOL       0.2008
      3 O1P        39.1605   31.0379   34.7639 O.co2       1 MOL      -0.5537
      4 O2P        41.0851   32.2790   34.3965 O.co2       1 MOL      -0.5537
      5 O5'        39.8543   32.4460   36.5949 O.3         1 MOL      -0.2734
      6 C5'        40.9441   33.2181   37.1474 C.3         1 MOL       0.1072
      7 C4'        40.6675   34.7507   37.1697 C.3         1 MOL       0.1182
      8 O4'        39.6592   35.1842   36.2494 O.3         1 MOL      -0.3363
      9 C3'        40.1338   35.2242   38.5295 C.3         1 MOL       0.1149
     10 O3'        41.1680   35.2645   39.5051 O.3         1 MOL      -0.3864
     11 C2'        39.5358   36.5923   38.1868 C.3         1 MOL       0.1387
     12 O2'        40.4863   37.6497   38.3507 O.3         1 MOL      -0.3836
     13 C1'        39.1132   36.4591   36.6866 C.3         1 MOL       0.2059
     14 N1         37.6823   36.5692   36.4064 N.am        1 MOL      -0.1592
     15 C2         37.0759   35.8641   35.4254 C.2         1 MOL       0.3328
     16 O2         37.6756   35.2915   34.5256 O.2         1 MOL      -0.3815
     17 N3         35.7525   35.8032   35.3654 N.am        1 MOL      -0.1865
     18 C4         34.9865   36.4675   36.2256 C.2         1 MOL       0.1822
     19 O4         33.7678   36.3854   36.1234 O.2         1 MOL      -0.4124
     20 C5         35.5510   37.3157   37.1249 C.2         1 MOL       0.0062
     21 C6         36.8958   37.4103   37.1466 C.2         1 MOL       0.0591
     22 H1         41.9137   33.0211   36.6747 H           1 MOL       0.0639
     23 H2         41.0543   32.8514   38.1707 H           1 MOL       0.0639
     24 H3         41.6017   35.2790   36.9364 H           1 MOL       0.0650
     25 H4         39.3371   34.5458   38.8761 H           1 MOL       0.0648
     26 H5         40.7319   35.5917   40.3164 H           1 MOL       0.2100
     27 H6         38.7062   36.7743   38.8732 H           1 MOL       0.0676
     28 H7         39.9715   38.4663   38.1690 H           1 MOL       0.2101
     29 H8         39.6110   37.2370   36.0966 H           1 MOL       0.0997
     30 H9         35.3457   35.2552   34.6841 H           1 MOL       0.2259
     31 H10        34.9896   37.9017   37.7032 H           1 MOL       0.0258
     32 H11        37.2974   38.1079   37.7249 H           1 MOL       0.1178
@<TRIPOS>BOND
     1     2     1  ar
     2     2     3  ar
     3     2     4  ar
     4     2     5   1
     5     5     6   1
     6     6     7   1
     7     7     8   1
     8     7     9   1
     9     8    13   1
    10     9    10   1
    11     9    11   1
    12    11    12   1
    13    11    13   1
    14    13    14   1
    15    14    15  am
    16    14    21   1
    17    15    16   2
    18    15    17  am
    19    17    18  am
    20    18    19   2
    21    18    20   1
    22    20    21   2
    23     6    22   1
    24     6    23   1
    25     7    24   1
    26     9    25   1
    27    10    26   1
    28    11    27   1
    29    12    28   1
    30    13    29   1
    31    17    30   1
    32    20    31   1
    33    21    32   1
@<TRIPOS>SUBSTRUCTURE
     1  MOL      6

