@<TRIPOS>MOLECULE
1loq_ligand_035
    32    33
SMALL
GAST_HUCK
****
This file was generated by PARSER (from files_GN.cpp)

@<TRIPOS>ATOM
      1 O3P        41.4572   33.9496   37.0461 O.co2       1 MOL      -0.5537
      2 P          40.7524   33.6490   35.8234 P.3         1 MOL       0.2008
      3 O1P        41.5605   32.6823   35.1240 O.co2       1 MOL      -0.5537
      4 O2P        39.4880   33.0438   36.1467 O.co2       1 MOL      -0.5537
      5 O5'        40.5953   34.8768   34.8752 O.3         1 MOL      -0.2734
      6 C5'        40.3732   36.1955   35.4166 C.3         1 MOL       0.1072
      7 C4'        38.8977   36.5771   35.6264 C.3         1 MOL       0.1182
      8 O4'        38.8332   37.9971   35.7755 O.3         1 MOL      -0.3363
      9 C3'        37.9797   36.2746   34.4312 C.3         1 MOL       0.1149
     10 O3'        37.5505   34.9180   34.4335 O.3         1 MOL      -0.3864
     11 C2'        36.8400   37.2880   34.6065 C.3         1 MOL       0.1387
     12 O2'        35.6955   36.6916   35.2258 O.3         1 MOL      -0.3836
     13 C1'        37.4873   38.3893   35.5069 C.3         1 MOL       0.2059
     14 N1         37.5320   39.7629   34.9980 N.am        1 MOL      -0.1592
     15 C2         37.3737   40.8218   35.8188 C.2         1 MOL       0.3328
     16 O2         37.2450   40.7225   37.0338 O.2         1 MOL      -0.3815
     17 N3         37.3813   42.0647   35.3234 N.am        1 MOL      -0.1865
     18 C4         37.5684   42.2968   34.0260 C.2         1 MOL       0.1822
     19 O4         37.5419   43.4445   33.6130 O.2         1 MOL      -0.4124
     20 C5         37.8213   41.2566   33.1780 C.2         1 MOL       0.0062
     21 C6         37.8269   40.0061   33.6818 C.2         1 MOL       0.0591
     22 H1         40.7818   36.8792   34.6623 H           1 MOL       0.0639
     23 H2         40.9224   36.3741   36.3475 H           1 MOL       0.0639
     24 H3         38.5228   36.0914   36.5380 H           1 MOL       0.0650
     25 H4         38.5058   36.4760   33.4951 H           1 MOL       0.0648
     26 H5         37.1387   34.7904   35.3144 H           1 MOL       0.2100
     27 H6         36.5261   37.6602   33.6262 H           1 MOL       0.0676
     28 H7         34.9425   36.9689   34.6593 H           1 MOL       0.2101
     29 H8         36.9849   38.3559   36.4780 H           1 MOL       0.0997
     30 H9         37.2499   42.8142   35.9235 H           1 MOL       0.2259
     31 H10        38.0214   41.4198   32.2186 H           1 MOL       0.0258
     32 H11        38.0604   39.2604   33.0659 H           1 MOL       0.1178
@<TRIPOS>BOND
     1     2     1  ar
     2     2     3  ar
     3     2     4  ar
     4     2     5   1
     5     5     6   1
     6     6     7   1
     7     7     8   1
     8     7     9   1
     9     8    13   1
    10     9    10   1
    11     9    11   1
    12    11    12   1
    13    11    13   1
    14    13    14   1
    15    14    15  am
    16    14    21   1
    17    15    16   2
    18    15    17  am
    19    17    18  am
    20    18    19   2
    21    18    20   1
    22    20    21   2
    23     6    22   1
    24     6    23   1
    25     7    24   1
    26     9    25   1
    27    10    26   1
    28    11    27   1
    29    12    28   1
    30    13    29   1
    31    17    30   1
    32    20    31   1
    33    21    32   1
@<TRIPOS>SUBSTRUCTURE
     1  MOL      6

