@<TRIPOS>MOLECULE
1loq_ligand_050
    32    33
SMALL
GAST_HUCK
****
This file was generated by PARSER (from files_GN.cpp)

@<TRIPOS>ATOM
      1 O3P        37.1676   36.2013   33.6296 O.co2       1 MOL      -0.5537
      2 P          38.2386   37.1597   33.7178 P.3         1 MOL       0.2008
      3 O1P        38.7142   37.3701   32.3700 O.co2       1 MOL      -0.5537
      4 O2P        37.7415   38.4369   34.1721 O.co2       1 MOL      -0.5537
      5 O5'        39.4945   36.7352   34.5419 O.3         1 MOL      -0.2734
      6 C5'        39.3283   35.8478   35.6717 C.3         1 MOL       0.1072
      7 C4'        39.1333   34.3546   35.2597 C.3         1 MOL       0.1182
      8 O4'        39.3399   34.1988   33.8537 O.3         1 MOL      -0.3363
      9 C3'        40.1203   33.3301   35.8634 C.3         1 MOL       0.1149
     10 O3'        39.7337   32.9057   37.1690 O.3         1 MOL      -0.3864
     11 C2'        40.1386   32.1901   34.8230 C.3         1 MOL       0.1387
     12 O2'        39.4376   31.0160   35.2424 O.3         1 MOL      -0.3836
     13 C1'        39.4668   32.8032   33.5676 C.3         1 MOL       0.2059
     14 N1         40.1709   32.6388   32.2968 N.am        1 MOL      -0.1592
     15 C2         39.6010   32.0767   31.2000 C.2         1 MOL       0.3328
     16 O2         38.4833   31.5758   31.1950 O.2         1 MOL      -0.3815
     17 N3         40.2633   32.0330   30.0415 N.am        1 MOL      -0.1865
     18 C4         41.4825   32.5518   29.9137 C.2         1 MOL       0.1822
     19 O4         42.0384   32.4959   28.8273 O.2         1 MOL      -0.4124
     20 C5         42.0932   33.1287   30.9843 C.2         1 MOL       0.0062
     21 C6         41.4361   33.1512   32.1624 C.2         1 MOL       0.0591
     22 H1         38.5118   36.1798   36.3266 H           1 MOL       0.0639
     23 H2         40.2500   35.9521   36.2540 H           1 MOL       0.0639
     24 H3         38.1060   34.0653   35.5052 H           1 MOL       0.0650
     25 H4         41.1219   33.7711   35.9277 H           1 MOL       0.0648
     26 H5         40.4276   32.2658   37.4456 H           1 MOL       0.2100
     27 H6         41.1727   31.9028   34.6266 H           1 MOL       0.0676
     28 H7         39.8546   30.7566   36.0886 H           1 MOL       0.2101
     29 H8         38.4451   32.4133   33.5042 H           1 MOL       0.0997
     30 H9         39.8409   31.6215   29.2701 H           1 MOL       0.2259
     31 H10        43.0075   33.5159   30.9074 H           1 MOL       0.0258
     32 H11        41.8925   33.5688   32.9431 H           1 MOL       0.1178
@<TRIPOS>BOND
     1     2     1  ar
     2     2     3  ar
     3     2     4  ar
     4     2     5   1
     5     5     6   1
     6     6     7   1
     7     7     8   1
     8     7     9   1
     9     8    13   1
    10     9    10   1
    11     9    11   1
    12    11    12   1
    13    11    13   1
    14    13    14   1
    15    14    15  am
    16    14    21   1
    17    15    16   2
    18    15    17  am
    19    17    18  am
    20    18    19   2
    21    18    20   1
    22    20    21   2
    23     6    22   1
    24     6    23   1
    25     7    24   1
    26     9    25   1
    27    10    26   1
    28    11    27   1
    29    12    28   1
    30    13    29   1
    31    17    30   1
    32    20    31   1
    33    21    32   1
@<TRIPOS>SUBSTRUCTURE
     1  MOL      6

