@<TRIPOS>MOLECULE
1loq_ligand_033
    32    33
SMALL
GAST_HUCK
****
This file was generated by PARSER (from files_GN.cpp)

@<TRIPOS>ATOM
      1 O3P        39.6981   33.2528   36.4895 O.co2       1 MOL      -0.5537
      2 P          39.4606   33.1570   35.0729 P.3         1 MOL       0.2008
      3 O1P        40.7290   33.0420   34.3921 O.co2       1 MOL      -0.5537
      4 O2P        38.6906   31.9681   34.8297 O.co2       1 MOL      -0.5537
      5 O5'        38.6787   34.3941   34.5377 O.3         1 MOL      -0.2734
      6 C5'        39.0580   35.6819   35.0842 C.3         1 MOL       0.1072
      7 C4'        38.9759   36.7997   34.0107 C.3         1 MOL       0.1182
      8 O4'        37.8979   37.6987   34.2701 O.3         1 MOL      -0.3363
      9 C3'        40.2303   37.7049   33.9430 C.3         1 MOL       0.1149
     10 O3'        41.2637   37.0882   33.1792 O.3         1 MOL      -0.3864
     11 C2'        39.6932   39.0139   33.3507 C.3         1 MOL       0.1387
     12 O2'        40.0446   39.1473   31.9711 O.3         1 MOL      -0.3836
     13 C1'        38.1551   38.9075   33.5361 C.3         1 MOL       0.2059
     14 N1         37.5703   40.0629   34.2008 N.am        1 MOL      -0.1592
     15 C2         36.9812   41.0585   33.5067 C.2         1 MOL       0.3328
     16 O2         36.9053   41.0843   32.2889 O.2         1 MOL      -0.3815
     17 N3         36.4443   42.0965   34.1572 N.am        1 MOL      -0.1865
     18 C4         36.4744   42.1800   35.4826 C.2         1 MOL       0.1822
     19 O4         35.9727   43.1525   36.0299 O.2         1 MOL      -0.4124
     20 C5         37.0710   41.2025   36.2156 C.2         1 MOL       0.0062
     21 C6         37.6256   40.1632   35.5653 C.2         1 MOL       0.0591
     22 H1         40.0524   35.7047   35.5390 H           1 MOL       0.0639
     23 H2         38.3532   35.8833   35.8935 H           1 MOL       0.0639
     24 H3         38.7987   36.3676   33.0155 H           1 MOL       0.0650
     25 H4         40.6090   37.8991   34.9526 H           1 MOL       0.0648
     26 H5         41.9650   37.7672   33.1025 H           1 MOL       0.2100
     27 H6         40.1191   39.8625   33.8957 H           1 MOL       0.0676
     28 H7         39.7136   40.0299   31.7095 H           1 MOL       0.2101
     29 H8         37.6821   38.7399   32.5613 H           1 MOL       0.0997
     30 H9         36.0285   42.8084   33.6478 H           1 MOL       0.2259
     31 H10        37.1060   41.2540   37.2073 H           1 MOL       0.0258
     32 H11        38.0613   39.4576   36.1103 H           1 MOL       0.1178
@<TRIPOS>BOND
     1     2     1  ar
     2     2     3  ar
     3     2     4  ar
     4     2     5   1
     5     5     6   1
     6     6     7   1
     7     7     8   1
     8     7     9   1
     9     8    13   1
    10     9    10   1
    11     9    11   1
    12    11    12   1
    13    11    13   1
    14    13    14   1
    15    14    15  am
    16    14    21   1
    17    15    16   2
    18    15    17  am
    19    17    18  am
    20    18    19   2
    21    18    20   1
    22    20    21   2
    23     6    22   1
    24     6    23   1
    25     7    24   1
    26     9    25   1
    27    10    26   1
    28    11    27   1
    29    12    28   1
    30    13    29   1
    31    17    30   1
    32    20    31   1
    33    21    32   1
@<TRIPOS>SUBSTRUCTURE
     1  MOL      6

