@<TRIPOS>MOLECULE
1loq_ligand_044
    32    33
SMALL
GAST_HUCK
****
This file was generated by PARSER (from files_GN.cpp)

@<TRIPOS>ATOM
      1 O3P        39.1525   36.0134   33.6940 O.co2       1 MOL      -0.5537
      2 P          37.9741   35.7444   34.4758 P.3         1 MOL       0.2008
      3 O1P        38.0080   36.6861   35.5683 O.co2       1 MOL      -0.5537
      4 O2P        36.8153   36.0676   33.6647 O.co2       1 MOL      -0.5537
      5 O5'        37.9027   34.3010   35.0434 O.3         1 MOL      -0.2734
      6 C5'        38.7471   33.2728   34.4783 C.3         1 MOL       0.1072
      7 C4'        40.2640   33.4617   34.7791 C.3         1 MOL       0.1182
      8 O4'        40.5002   34.7946   35.2732 O.3         1 MOL      -0.3363
      9 C3'        40.8658   32.4920   35.8107 C.3         1 MOL       0.1149
     10 O3'        42.2162   32.1793   35.4446 O.3         1 MOL      -0.3864
     11 C2'        40.7544   33.2807   37.1236 C.3         1 MOL       0.1387
     12 O2'        41.6577   32.8442   38.1276 O.3         1 MOL      -0.3836
     13 C1'        41.0335   34.7194   36.6227 C.3         1 MOL       0.2059
     14 N1         40.5789   35.8950   37.3735 N.am        1 MOL      -0.1592
     15 C2         39.3104   36.0687   37.7994 C.2         1 MOL       0.3328
     16 O2         38.4242   35.2377   37.6820 O.2         1 MOL      -0.3815
     17 N3         38.9526   37.2016   38.3949 N.am        1 MOL      -0.1865
     18 C4         39.8044   38.2100   38.5396 C.2         1 MOL       0.1822
     19 O4         39.4284   39.2432   39.0749 O.2         1 MOL      -0.4124
     20 C5         41.0806   38.1027   38.0876 C.2         1 MOL       0.0062
     21 C6         41.4544   36.9322   37.5314 C.2         1 MOL       0.0591
     22 H1         38.5846   33.1633   33.4083 H           1 MOL       0.0639
     23 H2         38.4193   32.3273   34.9059 H           1 MOL       0.0639
     24 H3         40.7947   33.3525   33.8348 H           1 MOL       0.0650
     25 H4         40.3085   31.5459   35.8769 H           1 MOL       0.0648
     26 H5         42.7243   32.9998   35.6163 H           1 MOL       0.2100
     27 H6         39.7377   33.1725   37.5042 H           1 MOL       0.0676
     28 H7         41.1775   32.9844   38.9729 H           1 MOL       0.2101
     29 H8         42.1178   34.7658   36.5146 H           1 MOL       0.0997
     30 H9         38.0471   37.3029   38.7353 H           1 MOL       0.2259
     31 H10        41.7180   38.8697   38.1508 H           1 MOL       0.0258
     32 H11        42.4033   36.8599   37.2316 H           1 MOL       0.1178
@<TRIPOS>BOND
     1     2     1  ar
     2     2     3  ar
     3     2     4  ar
     4     2     5   1
     5     5     6   1
     6     6     7   1
     7     7     8   1
     8     7     9   1
     9     8    13   1
    10     9    10   1
    11     9    11   1
    12    11    12   1
    13    11    13   1
    14    13    14   1
    15    14    15  am
    16    14    21   1
    17    15    16   2
    18    15    17  am
    19    17    18  am
    20    18    19   2
    21    18    20   1
    22    20    21   2
    23     6    22   1
    24     6    23   1
    25     7    24   1
    26     9    25   1
    27    10    26   1
    28    11    27   1
    29    12    28   1
    30    13    29   1
    31    17    30   1
    32    20    31   1
    33    21    32   1
@<TRIPOS>SUBSTRUCTURE
     1  MOL      6

