@<TRIPOS>MOLECULE
1loq_ligand_017
    32    33
SMALL
GAST_HUCK
****
This file was generated by PARSER (from files_GN.cpp)

@<TRIPOS>ATOM
      1 O3P        41.5272   32.6767   35.0980 O.co2       1 MOL      -0.5537
      2 P          40.6324   33.5788   35.7814 P.3         1 MOL       0.2008
      3 O1P        39.4626   32.8564   36.2124 O.co2       1 MOL      -0.5537
      4 O2P        41.3399   34.0341   36.9573 O.co2       1 MOL      -0.5537
      5 O5'        40.3582   34.8003   34.8505 O.3         1 MOL      -0.2734
      6 C5'        39.1251   35.5222   35.0935 C.3         1 MOL       0.1072
      7 C4'        39.0351   36.7946   34.2003 C.3         1 MOL       0.1182
      8 O4'        38.0928   37.6869   34.7930 O.3         1 MOL      -0.3363
      9 C3'        40.3248   37.6318   34.0827 C.3         1 MOL       0.1149
     10 O3'        41.2221   37.1100   33.1024 O.3         1 MOL      -0.3864
     11 C2'        39.7892   39.0431   33.7535 C.3         1 MOL       0.1387
     12 O2'        39.8586   39.3230   32.3503 O.3         1 MOL      -0.3836
     13 C1'        38.3175   38.9971   34.2519 C.3         1 MOL       0.2059
     14 N1         37.9672   39.9967   35.2486 N.am        1 MOL      -0.1592
     15 C2         38.6855   40.1655   36.3828 C.2         1 MOL       0.3328
     16 O2         39.6557   39.4794   36.6745 O.2         1 MOL      -0.3815
     17 N3         38.3465   41.1091   37.2577 N.am        1 MOL      -0.1865
     18 C4         37.2775   41.8833   37.0723 C.2         1 MOL       0.1822
     19 O4         37.0043   42.7308   37.9053 O.2         1 MOL      -0.4124
     20 C5         36.4908   41.7083   35.9754 C.2         1 MOL       0.0062
     21 C6         36.8514   40.7695   35.0779 C.2         1 MOL       0.0591
     22 H1         39.0618   35.8429   36.1504 H           1 MOL       0.0639
     23 H2         38.2542   34.8808   34.8810 H           1 MOL       0.0639
     24 H3         38.6868   36.5019   33.2004 H           1 MOL       0.0650
     25 H4         40.8398   37.6529   35.0488 H           1 MOL       0.0648
     26 H5         41.9108   37.8007   32.9933 H           1 MOL       0.2100
     27 H6         40.3835   39.7972   34.2712 H           1 MOL       0.0676
     28 H7         39.5476   40.2493   32.2562 H           1 MOL       0.2101
     29 H8         37.6651   39.0673   33.3734 H           1 MOL       0.0997
     30 H9         38.8742   41.2280   38.0705 H           1 MOL       0.2259
     31 H10        35.6615   42.2380   35.8490 H           1 MOL       0.0258
     32 H11        36.2545   40.6332   34.2915 H           1 MOL       0.1178
@<TRIPOS>BOND
     1     2     1  ar
     2     2     3  ar
     3     2     4  ar
     4     2     5   1
     5     5     6   1
     6     6     7   1
     7     7     8   1
     8     7     9   1
     9     8    13   1
    10     9    10   1
    11     9    11   1
    12    11    12   1
    13    11    13   1
    14    13    14   1
    15    14    15  am
    16    14    21   1
    17    15    16   2
    18    15    17  am
    19    17    18  am
    20    18    19   2
    21    18    20   1
    22    20    21   2
    23     6    22   1
    24     6    23   1
    25     7    24   1
    26     9    25   1
    27    10    26   1
    28    11    27   1
    29    12    28   1
    30    13    29   1
    31    17    30   1
    32    20    31   1
    33    21    32   1
@<TRIPOS>SUBSTRUCTURE
     1  MOL      6

