@<TRIPOS>MOLECULE
1loq_ligand_018
    32    33
SMALL
GAST_HUCK
****
This file was generated by PARSER (from files_GN.cpp)

@<TRIPOS>ATOM
      1 O3P        41.5244   32.6175   35.1097 O.co2       1 MOL      -0.5537
      2 P          40.6680   33.5377   35.8177 P.3         1 MOL       0.2008
      3 O1P        39.4435   32.8713   36.1856 O.co2       1 MOL      -0.5537
      4 O2P        41.3681   33.9380   37.0110 O.co2       1 MOL      -0.5537
      5 O5'        40.4235   34.7785   34.8914 O.3         1 MOL      -0.2734
      6 C5'        39.2307   35.5586   35.1839 C.3         1 MOL       0.1072
      7 C4'        39.1773   36.7744   34.2162 C.3         1 MOL       0.1182
      8 O4'        38.0594   36.6648   33.3248 O.3         1 MOL      -0.3363
      9 C3'        39.0463   38.1660   34.8846 C.3         1 MOL       0.1149
     10 O3'        40.2528   38.9097   34.6917 O.3         1 MOL      -0.3864
     11 C2'        37.8368   38.7998   34.1634 C.3         1 MOL       0.1387
     12 O2'        38.0013   40.2131   33.9279 O.3         1 MOL      -0.3836
     13 C1'        37.7263   37.9831   32.8518 C.3         1 MOL       0.2059
     14 N1         36.4892   37.9538   32.0767 N.am        1 MOL      -0.1592
     15 C2         35.4088   38.7485   32.2796 C.2         1 MOL       0.3328
     16 O2         35.3299   39.6067   33.1471 O.2         1 MOL      -0.3815
     17 N3         34.3373   38.6229   31.5006 N.am        1 MOL      -0.1865
     18 C4         34.2967   37.7571   30.4973 C.2         1 MOL       0.1822
     19 O4         33.2764   37.6749   29.8311 O.2         1 MOL      -0.4124
     20 C5         35.3708   36.9719   30.2292 C.2         1 MOL       0.0062
     21 C6         36.4604   37.0958   31.0077 C.2         1 MOL       0.0591
     22 H1         39.2545   35.9342   36.2232 H           1 MOL       0.0639
     23 H2         38.3166   34.9534   35.0575 H           1 MOL       0.0639
     24 H3         40.0734   36.7555   33.5917 H           1 MOL       0.0650
     25 H4         38.8510   38.0945   35.9553 H           1 MOL       0.0648
     26 H5         40.1108   39.7545   35.1637 H           1 MOL       0.2100
     27 H6         36.9469   38.6300   34.7853 H           1 MOL       0.0676
     28 H7         37.9556   40.6262   34.8286 H           1 MOL       0.2101
     29 H8         38.5263   38.3352   32.1855 H           1 MOL       0.0997
     30 H9         33.5810   39.1964   31.6643 H           1 MOL       0.2259
     31 H10        35.3700   36.3446   29.4575 H           1 MOL       0.0258
     32 H11        37.2526   36.5331   30.7876 H           1 MOL       0.1178
@<TRIPOS>BOND
     1     2     1  ar
     2     2     3  ar
     3     2     4  ar
     4     2     5   1
     5     5     6   1
     6     6     7   1
     7     7     8   1
     8     7     9   1
     9     8    13   1
    10     9    10   1
    11     9    11   1
    12    11    12   1
    13    11    13   1
    14    13    14   1
    15    14    15  am
    16    14    21   1
    17    15    16   2
    18    15    17  am
    19    17    18  am
    20    18    19   2
    21    18    20   1
    22    20    21   2
    23     6    22   1
    24     6    23   1
    25     7    24   1
    26     9    25   1
    27    10    26   1
    28    11    27   1
    29    12    28   1
    30    13    29   1
    31    17    30   1
    32    20    31   1
    33    21    32   1
@<TRIPOS>SUBSTRUCTURE
     1  MOL      6

