@<TRIPOS>MOLECULE
1lor_ligand_004
    33    34
SMALL
GAST_HUCK
****
This file was generated by PARSER (from files_GN.cpp)

@<TRIPOS>ATOM
      1 P          39.9518   32.5403   35.0329 P.3         1 BMP       0.2008
      2 O1P        39.3237   33.4752   34.1313 O.co2       1 BMP      -0.5537
      3 O2P        39.2535   31.2887   34.8973 O.co2       1 BMP      -0.5537
      4 O3P        41.3205   32.3122   34.6269 O.co2       1 BMP      -0.5537
      5 O5'        39.8130   32.9697   36.5176 O.3         1 BMP      -0.2734
      6 C5'        40.7116   33.9661   37.0436 C.3         1 BMP       0.1071
      7 C4'        40.2141   35.4305   36.9525 C.3         1 BMP       0.1181
      8 O4'        40.1644   35.9410   35.6123 O.3         1 BMP      -0.3367
      9 C3'        38.7864   35.6852   37.4731 C.3         1 BMP       0.1148
     10 O3'        38.7003   35.6447   38.8934 O.3         1 BMP      -0.3864
     11 C2'        38.4278   37.0539   36.8673 C.3         1 BMP       0.1383
     12 O2'        38.5388   38.1350   37.8039 O.3         1 BMP      -0.3837
     13 C1'        39.4468   37.1897   35.6998 C.3         1 BMP       0.2082
     14 N1         38.8577   37.5752   34.4222 N.am        1 BMP      -0.1249
     15 C2         39.0812   38.7997   33.8974 C.2         1 BMP       0.3330
     16 O2         39.7110   39.6872   34.4631 O.2         1 BMP      -0.3821
     17 N3         38.6016   39.1191   32.6975 N.am        1 BMP      -0.1915
     18 C4         37.8753   38.2644   31.9884 C.2         1 BMP       0.1636
     19 O4         37.4384   38.6229   30.9041 O.2         1 BMP      -0.4266
     20 C5         37.6035   37.0281   32.4818 C.2         1 BMP       0.0219
     21 C6         38.0805   36.6966   33.6981 C.2         1 BMP       0.2117
     22 O1         37.7717   35.4809   34.1320 O.3         1 BMP      -0.2890
     23 H1         41.7208   33.8981   36.6216 H           1 BMP       0.0639
     24 H2         40.8126   33.7260   38.1062 H           1 BMP       0.0639
     25 H3         40.9231   36.0397   37.5330 H           1 BMP       0.0650
     26 H4         38.1086   34.9321   37.0616 H           1 BMP       0.0648
     27 H5         38.8667   34.7093   39.1325 H           1 BMP       0.2100
     28 H6         37.3952   37.0529   36.5167 H           1 BMP       0.0675
     29 H7         39.4333   38.0531   38.1933 H           1 BMP       0.2101
     30 H8         40.2119   37.9135   36.0117 H           1 BMP       0.0991
     31 H9         38.7780   40.0035   32.3394 H           1 BMP       0.2246
     32 H10        37.0591   36.3892   31.9496 H           1 BMP       0.0051
     33 H11        37.3275   35.6077   34.9960 H           1 BMP       0.2637
@<TRIPOS>BOND
     1     1     5   1
     2     1     4  ar
     3     1     3  ar
     4     1     2  ar
     5     5     6   1
     6     6     7   1
     7     7     9   1
     8     7     8   1
     9     8    13   1
    10    13    14  am
    11    13    11   1
    12    11    12   1
    13    11     9   1
    14     9    10   1
    15    14    21   1
    16    14    15  am
    17    15    17  am
    18    15    16   2
    19    17    18  am
    20    18    20   1
    21    18    19   2
    22    20    21   2
    23    21    22   1
    24     6    23   1
    25     6    24   1
    26     7    25   1
    27     9    26   1
    28    10    27   1
    29    11    28   1
    30    12    29   1
    31    13    30   1
    32    17    31   1
    33    20    32   1
    34    22    33   1
@<TRIPOS>SUBSTRUCTURE
     1  BMP      6

