@<TRIPOS>MOLECULE
1lor_ligand_010
    33    34
SMALL
GAST_HUCK
****
This file was generated by PARSER (from files_GN.cpp)

@<TRIPOS>ATOM
      1 P          40.8698   33.6578   35.7891 P.3         1 BMP       0.2008
      2 O1P        40.6411   34.5118   34.6487 O.co2       1 BMP      -0.5537
      3 O2P        39.6770   32.9086   36.0854 O.co2       1 BMP      -0.5537
      4 O3P        41.9001   32.7358   35.3853 O.co2       1 BMP      -0.5537
      5 O5'        41.3471   34.4233   37.0632 O.3         1 BMP      -0.2734
      6 C5'        40.4517   35.3592   37.7032 C.3         1 BMP       0.1071
      7 C4'        40.5990   36.7982   37.1451 C.3         1 BMP       0.1181
      8 O4'        40.0992   36.8774   35.8107 O.3         1 BMP      -0.3367
      9 C3'        39.7746   37.8761   37.8652 C.3         1 BMP       0.1148
     10 O3'        40.3103   38.2631   39.1252 O.3         1 BMP      -0.3864
     11 C2'        39.7826   39.0146   36.8249 C.3         1 BMP       0.1383
     12 O2'        40.9088   39.8658   37.0289 O.3         1 BMP      -0.3837
     13 C1'        39.8946   38.2642   35.4545 C.3         1 BMP       0.2082
     14 N1         38.9121   38.2573   34.3641 N.am        1 BMP      -0.1249
     15 C2         39.2070   37.5330   33.2511 C.2         1 BMP       0.3330
     16 O2         40.2376   36.8900   33.1068 O.2         1 BMP      -0.3821
     17 N3         38.3714   37.4885   32.2170 N.am        1 BMP      -0.1915
     18 C4         37.2092   38.1284   32.2359 C.2         1 BMP       0.1636
     19 O4         36.4788   38.0470   31.2602 O.2         1 BMP      -0.4266
     20 C5         36.8476   38.8463   33.3217 C.2         1 BMP       0.0219
     21 C6         37.6950   38.9111   34.3750 C.2         1 BMP       0.2117
     22 O1         37.2363   39.5733   35.4294 O.3         1 BMP      -0.2890
     23 H1         40.7456   35.3808   38.7554 H           1 BMP       0.0639
     24 H2         39.4035   35.0417   37.6797 H           1 BMP       0.0639
     25 H3         41.6596   37.0685   37.1591 H           1 BMP       0.0650
     26 H4         38.7463   37.5260   38.0078 H           1 BMP       0.0648
     27 H5         40.2754   37.4519   39.6721 H           1 BMP       0.2100
     28 H6         38.9043   39.6373   36.9584 H           1 BMP       0.0675
     29 H7         40.8115   40.2106   37.9396 H           1 BMP       0.2101
     30 H8         40.8416   38.6091   35.0126 H           1 BMP       0.0991
     31 H9         38.6170   36.9679   31.4324 H           1 BMP       0.2246
     32 H10        35.9602   39.2990   33.3506 H           1 BMP       0.0051
     33 H11        36.8234   40.3971   35.0662 H           1 BMP       0.2637
@<TRIPOS>BOND
     1     1     5   1
     2     1     4  ar
     3     1     3  ar
     4     1     2  ar
     5     5     6   1
     6     6     7   1
     7     7     9   1
     8     7     8   1
     9     8    13   1
    10    13    14  am
    11    13    11   1
    12    11    12   1
    13    11     9   1
    14     9    10   1
    15    14    21   1
    16    14    15  am
    17    15    17  am
    18    15    16   2
    19    17    18  am
    20    18    20   1
    21    18    19   2
    22    20    21   2
    23    21    22   1
    24     6    23   1
    25     6    24   1
    26     7    25   1
    27     9    26   1
    28    10    27   1
    29    11    28   1
    30    12    29   1
    31    13    30   1
    32    17    31   1
    33    20    32   1
    34    22    33   1
@<TRIPOS>SUBSTRUCTURE
     1  BMP      6

