@<TRIPOS>MOLECULE
1lor_ligand_005
    33    34
SMALL
GAST_HUCK
****
This file was generated by PARSER (from files_GN.cpp)

@<TRIPOS>ATOM
      1 P          40.8729   33.4736   35.6731 P.3         1 BMP       0.2008
      2 O1P        41.6494   33.9461   36.7903 O.co2       1 BMP      -0.5537
      3 O2P        41.7063   32.5476   34.9508 O.co2       1 BMP      -0.5537
      4 O3P        39.7111   32.7843   36.1746 O.co2       1 BMP      -0.5537
      5 O5'        40.5509   34.6541   34.7066 O.3         1 BMP      -0.2734
      6 C5'        39.4497   35.5245   35.0309 C.3         1 BMP       0.1071
      7 C4'        39.7569   36.5378   36.1798 C.3         1 BMP       0.1181
      8 O4'        39.6060   37.8865   35.7152 O.3         1 BMP      -0.3367
      9 C3'        38.8161   36.4370   37.4021 C.3         1 BMP       0.1148
     10 O3'        39.2325   35.4296   38.3254 O.3         1 BMP      -0.3864
     11 C2'        38.8163   37.8663   37.9825 C.3         1 BMP       0.1383
     12 O2'        39.5099   37.9914   39.2275 O.3         1 BMP      -0.3837
     13 C1'        39.4789   38.7268   36.8722 C.3         1 BMP       0.2082
     14 N1         38.7459   39.9539   36.5790 N.am        1 BMP      -0.1249
     15 C2         39.1948   41.1601   36.9918 C.2         1 BMP       0.3330
     16 O2         40.2661   41.3280   37.5621 O.2         1 BMP      -0.3821
     17 N3         38.4560   42.2517   36.8040 N.am        1 BMP      -0.1915
     18 C4         37.2515   42.1964   36.2468 C.2         1 BMP       0.1636
     19 O4         36.6024   43.2261   36.1305 O.2         1 BMP      -0.4266
     20 C5         36.7886   41.0205   35.7580 C.2         1 BMP       0.0219
     21 C6         37.5415   39.9098   35.9134 C.2         1 BMP       0.2117
     22 O1         37.0764   38.7941   35.3543 O.3         1 BMP      -0.2890
     23 H1         38.5336   34.9518   35.2120 H           1 BMP       0.0639
     24 H2         39.2597   36.0918   34.1174 H           1 BMP       0.0639
     25 H3         40.7959   36.4189   36.5052 H           1 BMP       0.0650
     26 H4         37.8019   36.1938   37.0682 H           1 BMP       0.0648
     27 H5         38.4417   35.2433   38.8750 H           1 BMP       0.2100
     28 H6         37.7850   38.1778   38.1616 H           1 BMP       0.0675
     29 H7         40.4103   37.6413   39.0712 H           1 BMP       0.2101
     30 H8         40.5110   38.9427   37.1742 H           1 BMP       0.0991
     31 H9         38.8090   43.1206   37.0418 H           1 BMP       0.2246
     32 H10        35.9496   40.9987   35.2262 H           1 BMP       0.0051
     33 H11        37.7561   38.5243   34.7052 H           1 BMP       0.2637
@<TRIPOS>BOND
     1     1     5   1
     2     1     4  ar
     3     1     3  ar
     4     1     2  ar
     5     5     6   1
     6     6     7   1
     7     7     9   1
     8     7     8   1
     9     8    13   1
    10    13    14  am
    11    13    11   1
    12    11    12   1
    13    11     9   1
    14     9    10   1
    15    14    21   1
    16    14    15  am
    17    15    17  am
    18    15    16   2
    19    17    18  am
    20    18    20   1
    21    18    19   2
    22    20    21   2
    23    21    22   1
    24     6    23   1
    25     6    24   1
    26     7    25   1
    27     9    26   1
    28    10    27   1
    29    11    28   1
    30    12    29   1
    31    13    30   1
    32    17    31   1
    33    20    32   1
    34    22    33   1
@<TRIPOS>SUBSTRUCTURE
     1  BMP      6

