@<TRIPOS>MOLECULE
1lor_ligand_016
    33    34
SMALL
GAST_HUCK
****
This file was generated by PARSER (from files_GN.cpp)

@<TRIPOS>ATOM
      1 P          44.4577   41.5816   38.0480 P.3         1 BMP       0.2008
      2 O1P        43.7221   42.5965   37.3368 O.co2       1 BMP      -0.5537
      3 O2P        45.6444   41.3052   37.2834 O.co2       1 BMP      -0.5537
      4 O3P        44.8862   42.1079   39.3216 O.co2       1 BMP      -0.5537
      5 O5'        43.6831   40.2390   38.2399 O.3         1 BMP      -0.2734
      6 C5'        42.3056   40.3145   38.6600 C.3         1 BMP       0.1071
      7 C4'        41.3529   40.5108   37.4584 C.3         1 BMP       0.1181
      8 O4'        41.3625   39.3665   36.5978 O.3         1 BMP      -0.3367
      9 C3'        39.8798   40.7009   37.8514 C.3         1 BMP       0.1148
     10 O3'        39.6426   42.0535   38.2324 O.3         1 BMP      -0.3864
     11 C2'        39.1442   40.3032   36.5650 C.3         1 BMP       0.1383
     12 O2'        38.7525   41.4592   35.8158 O.3         1 BMP      -0.3837
     13 C1'        40.1773   39.4457   35.7876 C.3         1 BMP       0.2082
     14 N1         39.6741   38.1208   35.4421 N.am        1 BMP      -0.1249
     15 C2         39.5698   37.1454   36.3797 C.2         1 BMP       0.3330
     16 O2         39.8539   37.2983   37.5576 O.2         1 BMP      -0.3821
     17 N3         39.1325   35.9347   36.0378 N.am        1 BMP      -0.1915
     18 C4         38.7725   35.6535   34.7909 C.2         1 BMP       0.1636
     19 O4         38.3673   34.5323   34.5281 O.2         1 BMP      -0.4266
     20 C5         38.8247   36.6101   33.8285 C.2         1 BMP       0.0219
     21 C6         39.2653   37.8393   34.1592 C.2         1 BMP       0.2117
     22 O1         39.2695   38.7357   33.1757 O.3         1 BMP      -0.2890
     23 H1         42.1371   41.0758   39.4278 H           1 BMP       0.0639
     24 H2         42.0641   39.3530   39.1225 H           1 BMP       0.0639
     25 H3         41.6746   41.3826   36.8792 H           1 BMP       0.0650
     26 H4         39.5886   40.0402   38.6719 H           1 BMP       0.0648
     27 H5         38.6977   42.2378   38.0408 H           1 BMP       0.2100
     28 H6         38.2426   39.7313   36.7979 H           1 BMP       0.0675
     29 H7         39.5362   42.0513   35.8147 H           1 BMP       0.2101
     30 H8         40.4834   39.9974   34.8909 H           1 BMP       0.0991
     31 H9         39.0740   35.2396   36.7151 H           1 BMP       0.2246
     32 H10        38.5287   36.4176   32.9010 H           1 BMP       0.0051
     33 H11        38.6521   39.4435   33.4513 H           1 BMP       0.2637
@<TRIPOS>BOND
     1     1     5   1
     2     1     4  ar
     3     1     3  ar
     4     1     2  ar
     5     5     6   1
     6     6     7   1
     7     7     9   1
     8     7     8   1
     9     8    13   1
    10    13    14  am
    11    13    11   1
    12    11    12   1
    13    11     9   1
    14     9    10   1
    15    14    21   1
    16    14    15  am
    17    15    17  am
    18    15    16   2
    19    17    18  am
    20    18    20   1
    21    18    19   2
    22    20    21   2
    23    21    22   1
    24     6    23   1
    25     6    24   1
    26     7    25   1
    27     9    26   1
    28    10    27   1
    29    11    28   1
    30    12    29   1
    31    13    30   1
    32    17    31   1
    33    20    32   1
    34    22    33   1
@<TRIPOS>SUBSTRUCTURE
     1  BMP      6

