@<TRIPOS>MOLECULE
1lor_ligand_006
    33    34
SMALL
GAST_HUCK
****
This file was generated by PARSER (from files_GN.cpp)

@<TRIPOS>ATOM
      1 P          40.8390   33.7800   35.7682 P.3         1 BMP       0.2008
      2 O1P        41.5845   34.2912   36.8907 O.co2       1 BMP      -0.5537
      3 O2P        41.7464   32.9854   34.9787 O.co2       1 BMP      -0.5537
      4 O3P        39.7964   32.9171   36.2542 O.co2       1 BMP      -0.5537
      5 O5'        40.3385   34.9786   34.9067 O.3         1 BMP      -0.2734
      6 C5'        38.9938   35.4890   35.1029 C.3         1 BMP       0.1071
      7 C4'        38.9234   37.0130   35.3868 C.3         1 BMP       0.1181
      8 O4'        39.1557   37.3100   36.7660 O.3         1 BMP      -0.3367
      9 C3'        39.9406   37.9021   34.6512 C.3         1 BMP       0.1148
     10 O3'        39.4335   38.2952   33.3737 O.3         1 BMP      -0.3864
     11 C2'        40.1904   39.0746   35.6343 C.3         1 BMP       0.1383
     12 O2'        39.8167   40.3260   35.0591 O.3         1 BMP      -0.3837
     13 C1'        39.3576   38.7313   36.8992 C.3         1 BMP       0.2082
     14 N1         39.9151   39.1748   38.1780 N.am        1 BMP      -0.1249
     15 C2         40.1567   40.4904   38.3893 C.2         1 BMP       0.3330
     16 O2         39.9166   41.3763   37.5866 O.2         1 BMP      -0.3821
     17 N3         40.6431   40.9159   39.5548 N.am        1 BMP      -0.1915
     18 C4         40.8889   40.0829   40.5557 C.2         1 BMP       0.1636
     19 O4         41.3140   40.5318   41.6149 O.2         1 BMP      -0.4266
     20 C5         40.6614   38.7567   40.4021 C.2         1 BMP       0.0219
     21 C6         40.1855   38.3098   39.2198 C.2         1 BMP       0.2117
     22 O1         39.9974   36.9930   39.1629 O.3         1 BMP      -0.2890
     23 H1         38.4328   34.9805   35.8923 H           1 BMP       0.0639
     24 H2         38.4560   35.2981   34.1725 H           1 BMP       0.0639
     25 H3         37.9061   37.3438   35.1497 H           1 BMP       0.0650
     26 H4         40.8844   37.3782   34.4874 H           1 BMP       0.0648
     27 H5         39.3305   37.4595   32.8693 H           1 BMP       0.2100
     28 H6         41.2518   39.1127   35.8880 H           1 BMP       0.0675
     29 H7         40.4348   41.0022   35.4108 H           1 BMP       0.2101
     30 H8         38.3613   39.1946   36.8118 H           1 BMP       0.0991
     31 H9         40.8086   41.8650   39.6822 H           1 BMP       0.2246
     32 H10        40.8420   38.1292   41.1541 H           1 BMP       0.0051
     33 H11        39.0782   36.8907   38.8238 H           1 BMP       0.2637
@<TRIPOS>BOND
     1     1     5   1
     2     1     4  ar
     3     1     3  ar
     4     1     2  ar
     5     5     6   1
     6     6     7   1
     7     7     9   1
     8     7     8   1
     9     8    13   1
    10    13    14  am
    11    13    11   1
    12    11    12   1
    13    11     9   1
    14     9    10   1
    15    14    21   1
    16    14    15  am
    17    15    17  am
    18    15    16   2
    19    17    18  am
    20    18    20   1
    21    18    19   2
    22    20    21   2
    23    21    22   1
    24     6    23   1
    25     6    24   1
    26     7    25   1
    27     9    26   1
    28    10    27   1
    29    11    28   1
    30    12    29   1
    31    13    30   1
    32    17    31   1
    33    20    32   1
    34    22    33   1
@<TRIPOS>SUBSTRUCTURE
     1  BMP      6

