@<TRIPOS>MOLECULE
1lor_ligand_003
    33    34
SMALL
GAST_HUCK
****
This file was generated by PARSER (from files_GN.cpp)

@<TRIPOS>ATOM
      1 P          39.9815   32.5679   35.0499 P.3         1 BMP       0.2008
      2 O1P        39.3920   33.5194   34.1455 O.co2       1 BMP      -0.5537
      3 O2P        39.2833   31.3150   34.8534 O.co2       1 BMP      -0.5537
      4 O3P        41.3607   32.3359   34.7096 O.co2       1 BMP      -0.5537
      5 O5'        39.7624   32.9675   36.5404 O.3         1 BMP      -0.2734
      6 C5'        40.6052   33.9866   37.1181 C.3         1 BMP       0.1071
      7 C4'        39.8186   35.2673   37.4835 C.3         1 BMP       0.1181
      8 O4'        40.7060   36.1822   38.1246 O.3         1 BMP      -0.3367
      9 C3'        39.2346   36.0539   36.3002 C.3         1 BMP       0.1148
     10 O3'        37.9956   35.5168   35.8485 O.3         1 BMP      -0.3864
     11 C2'        39.1126   37.4733   36.8681 C.3         1 BMP       0.1383
     12 O2'        37.8407   37.7436   37.4606 O.3         1 BMP      -0.3837
     13 C1'        40.2259   37.5356   37.9533 C.3         1 BMP       0.2082
     14 N1         41.2422   38.5390   37.6320 N.am        1 BMP      -0.1249
     15 C2         42.5200   38.2231   37.3175 C.2         1 BMP       0.3330
     16 O2         42.9566   37.0851   37.2420 O.2         1 BMP      -0.3821
     17 N3         43.4078   39.1735   37.0357 N.am        1 BMP      -0.1915
     18 C4         43.0725   40.4576   37.0433 C.2         1 BMP       0.1636
     19 O4         43.9280   41.2867   36.7722 O.2         1 BMP      -0.4266
     20 C5         41.8028   40.8317   37.3496 C.2         1 BMP       0.0219
     21 C6         40.9022   39.8786   37.6669 C.2         1 BMP       0.2117
     22 O1         39.6509   40.2664   37.9252 O.3         1 BMP      -0.2890
     23 H1         41.4807   34.2570   36.5204 H           1 BMP       0.0639
     24 H2         40.9977   33.5597   38.0421 H           1 BMP       0.0639
     25 H3         39.0305   35.0109   38.1929 H           1 BMP       0.0650
     26 H4         39.9485   36.0575   35.4716 H           1 BMP       0.0648
     27 H5         37.6660   36.1628   35.1889 H           1 BMP       0.2100
     28 H6         39.2641   38.2022   36.0679 H           1 BMP       0.0675
     29 H7         37.2135   37.8821   36.7191 H           1 BMP       0.2101
     30 H8         39.7892   37.8061   38.9240 H           1 BMP       0.0991
     31 H9         44.3153   38.9137   36.8012 H           1 BMP       0.2246
     32 H10        41.5464   41.7905   37.3263 H           1 BMP       0.0051
     33 H11        39.7027   40.9464   38.6315 H           1 BMP       0.2637
@<TRIPOS>BOND
     1     1     5   1
     2     1     4  ar
     3     1     3  ar
     4     1     2  ar
     5     5     6   1
     6     6     7   1
     7     7     9   1
     8     7     8   1
     9     8    13   1
    10    13    14  am
    11    13    11   1
    12    11    12   1
    13    11     9   1
    14     9    10   1
    15    14    21   1
    16    14    15  am
    17    15    17  am
    18    15    16   2
    19    17    18  am
    20    18    20   1
    21    18    19   2
    22    20    21   2
    23    21    22   1
    24     6    23   1
    25     6    24   1
    26     7    25   1
    27     9    26   1
    28    10    27   1
    29    11    28   1
    30    12    29   1
    31    13    30   1
    32    17    31   1
    33    20    32   1
    34    22    33   1
@<TRIPOS>SUBSTRUCTURE
     1  BMP      6

