@<TRIPOS>MOLECULE
1lor_ligand_008
    33    34
SMALL
GAST_HUCK
****
This file was generated by PARSER (from files_GN.cpp)

@<TRIPOS>ATOM
      1 P          44.8755   41.4311   38.9869 P.3         1 BMP       0.2008
      2 O1P        45.4098   41.1773   40.3119 O.co2       1 BMP      -0.5537
      3 O2P        44.3764   42.7934   38.9941 O.co2       1 BMP      -0.5537
      4 O3P        45.9873   41.2758   38.0773 O.co2       1 BMP      -0.5537
      5 O5'        43.7616   40.3626   38.8305 O.3         1 BMP      -0.2734
      6 C5'        43.5871   39.6734   37.5729 C.3         1 BMP       0.1071
      7 C4'        42.3195   40.1105   36.8027 C.3         1 BMP       0.1181
      8 O4'        42.0321   39.0946   35.8364 O.3         1 BMP      -0.3367
      9 C3'        41.0406   40.2297   37.6596 C.3         1 BMP       0.1148
     10 O3'        40.9138   41.5151   38.2615 O.3         1 BMP      -0.3864
     11 C2'        39.9174   39.9337   36.6502 C.3         1 BMP       0.1383
     12 O2'        39.2861   41.1175   36.1483 O.3         1 BMP      -0.3837
     13 C1'        40.6412   39.1712   35.5084 C.3         1 BMP       0.2082
     14 N1         40.0946   37.8419   35.2569 N.am        1 BMP      -0.1249
     15 C2         39.4194   37.5699   34.1184 C.2         1 BMP       0.3330
     16 O2         39.2341   38.3732   33.2153 O.2         1 BMP      -0.3821
     17 N3         38.8799   36.3731   33.9277 N.am        1 BMP      -0.1915
     18 C4         39.0077   35.3985   34.8237 C.2         1 BMP       0.1636
     19 O4         38.4949   34.3156   34.5841 O.2         1 BMP      -0.4266
     20 C5         39.6839   35.6181   35.9816 C.2         1 BMP       0.0219
     21 C6         40.2248   36.8357   36.1881 C.2         1 BMP       0.2117
     22 O1         40.8946   37.0020   37.3260 O.3         1 BMP      -0.2890
     23 H1         43.4795   38.6188   37.8357 H           1 BMP       0.0639
     24 H2         44.4512   39.7343   36.8997 H           1 BMP       0.0639
     25 H3         42.5120   41.0580   36.2918 H           1 BMP       0.0650
     26 H4         41.0357   39.4710   38.4520 H           1 BMP       0.0648
     27 H5         40.1506   41.4626   38.8748 H           1 BMP       0.2100
     28 H6         39.1412   39.3253   37.1213 H           1 BMP       0.0675
     29 H7         40.0110   41.7537   35.9589 H           1 BMP       0.2101
     30 H8         40.6048   39.8005   34.6134 H           1 BMP       0.0991
     31 H9         38.3885   36.2065   33.1076 H           1 BMP       0.2246
     32 H10        39.7769   34.8931   36.6549 H           1 BMP       0.0051
     33 H11        40.2263   37.3271   37.9664 H           1 BMP       0.2637
@<TRIPOS>BOND
     1     1     5   1
     2     1     4  ar
     3     1     3  ar
     4     1     2  ar
     5     5     6   1
     6     6     7   1
     7     7     9   1
     8     7     8   1
     9     8    13   1
    10    13    14  am
    11    13    11   1
    12    11    12   1
    13    11     9   1
    14     9    10   1
    15    14    21   1
    16    14    15  am
    17    15    17  am
    18    15    16   2
    19    17    18  am
    20    18    20   1
    21    18    19   2
    22    20    21   2
    23    21    22   1
    24     6    23   1
    25     6    24   1
    26     7    25   1
    27     9    26   1
    28    10    27   1
    29    11    28   1
    30    12    29   1
    31    13    30   1
    32    17    31   1
    33    20    32   1
    34    22    33   1
@<TRIPOS>SUBSTRUCTURE
     1  BMP      6

