@<TRIPOS>MOLECULE
1lor_ligand_009
    33    34
SMALL
GAST_HUCK
****
This file was generated by PARSER (from files_GN.cpp)

@<TRIPOS>ATOM
      1 P          41.0480   33.5302   35.9390 P.3         1 BMP       0.2008
      2 O1P        41.7842   34.3183   36.8992 O.co2       1 BMP      -0.5537
      3 O2P        42.0195   32.7185   35.2490 O.co2       1 BMP      -0.5537
      4 O3P        40.1653   32.6964   36.7300 O.co2       1 BMP      -0.5537
      5 O5'        40.3519   34.5303   34.9554 O.3         1 BMP      -0.2734
      6 C5'        38.9058   34.4901   34.8306 C.3         1 BMP       0.1071
      7 C4'        38.3022   35.9114   34.9869 C.3         1 BMP       0.1181
      8 O4'        38.9026   36.5935   36.0880 O.3         1 BMP      -0.3367
      9 C3'        38.5192   36.8199   33.7738 C.3         1 BMP       0.1148
     10 O3'        37.5324   36.5718   32.7667 O.3         1 BMP      -0.3864
     11 C2'        38.4653   38.2237   34.3955 C.3         1 BMP       0.1383
     12 O2'        37.1595   38.7846   34.2347 O.3         1 BMP      -0.3837
     13 C1'        38.8631   38.0172   35.8940 C.3         1 BMP       0.2082
     14 N1         40.0631   38.7497   36.3146 N.am        1 BMP      -0.1249
     15 C2         40.1130   40.0970   36.1735 C.2         1 BMP       0.3330
     16 O2         39.1686   40.7593   35.7784 O.2         1 BMP      -0.3821
     17 N3         41.2310   40.7690   36.4269 N.am        1 BMP      -0.1915
     18 C4         42.3207   40.1660   36.8859 C.2         1 BMP       0.1636
     19 O4         43.3282   40.8256   37.0909 O.2         1 BMP      -0.4266
     20 C5         42.2938   38.8322   37.1504 C.2         1 BMP       0.0219
     21 C6         41.1682   38.1442   36.8740 C.2         1 BMP       0.2117
     22 O1         41.1945   36.8707   37.2477 O.3         1 BMP      -0.2890
     23 H1         38.4056   33.8472   35.5617 H           1 BMP       0.0639
     24 H2         38.6508   34.0955   33.8431 H           1 BMP       0.0639
     25 H3         37.2287   35.8258   35.1923 H           1 BMP       0.0650
     26 H4         39.5173   36.6565   33.3549 H           1 BMP       0.0648
     27 H5         37.9249   36.9004   31.9282 H           1 BMP       0.2100
     28 H6         39.1722   38.8704   33.8640 H           1 BMP       0.0675
     29 H7         37.3081   39.6728   33.8458 H           1 BMP       0.2101
     30 H8         38.0354   38.3676   36.5285 H           1 BMP       0.0991
     31 H9         41.2668   41.7244   36.2411 H           1 BMP       0.2246
     32 H10        43.0858   38.3901   37.5628 H           1 BMP       0.0051
     33 H11        40.9007   36.3663   36.4646 H           1 BMP       0.2637
@<TRIPOS>BOND
     1     1     5   1
     2     1     4  ar
     3     1     3  ar
     4     1     2  ar
     5     5     6   1
     6     6     7   1
     7     7     9   1
     8     7     8   1
     9     8    13   1
    10    13    14  am
    11    13    11   1
    12    11    12   1
    13    11     9   1
    14     9    10   1
    15    14    21   1
    16    14    15  am
    17    15    17  am
    18    15    16   2
    19    17    18  am
    20    18    20   1
    21    18    19   2
    22    20    21   2
    23    21    22   1
    24     6    23   1
    25     6    24   1
    26     7    25   1
    27     9    26   1
    28    10    27   1
    29    11    28   1
    30    12    29   1
    31    13    30   1
    32    17    31   1
    33    20    32   1
    34    22    33   1
@<TRIPOS>SUBSTRUCTURE
     1  BMP      6

