@<TRIPOS>MOLECULE
1lor_ligand_013
    33    34
SMALL
GAST_HUCK
****
This file was generated by PARSER (from files_GN.cpp)

@<TRIPOS>ATOM
      1 P          41.2520   33.6184   36.0531 P.3         1 BMP       0.2008
      2 O1P        41.8725   34.5955   36.9163 O.co2       1 BMP      -0.5537
      3 O2P        42.2875   32.7929   35.4807 O.co2       1 BMP      -0.5537
      4 O3P        40.3449   32.8741   36.8954 O.co2       1 BMP      -0.5537
      5 O5'        40.5549   34.4764   34.9745 O.3         1 BMP      -0.2734
      6 C5'        39.1780   34.1963   34.6275 C.3         1 BMP       0.1071
      7 C4'        38.3976   35.5294   34.6853 C.3         1 BMP       0.1181
      8 O4'        38.4624   36.0399   36.0277 O.3         1 BMP      -0.3367
      9 C3'        38.9817   36.6575   33.8245 C.3         1 BMP       0.1148
     10 O3'        38.5492   36.5796   32.4750 O.3         1 BMP      -0.3864
     11 C2'        38.4983   37.9162   34.5530 C.3         1 BMP       0.1383
     12 O2'        37.3467   38.4585   33.9017 O.3         1 BMP      -0.3837
     13 C1'        38.1976   37.4609   36.0206 C.3         1 BMP       0.2082
     14 N1         38.8942   38.2061   37.0759 N.am        1 BMP      -0.1249
     15 C2         39.4481   37.6008   38.1616 C.2         1 BMP       0.3330
     16 O2         39.3850   36.4004   38.4057 O.2         1 BMP      -0.3821
     17 N3         40.0974   38.3139   39.0760 N.am        1 BMP      -0.1915
     18 C4         40.2393   39.6276   38.9631 C.2         1 BMP       0.1636
     19 O4         40.8618   40.2265   39.8275 O.2         1 BMP      -0.4266
     20 C5         39.6601   40.2865   37.9297 C.2         1 BMP       0.0219
     21 C6         38.9428   39.5843   37.0294 C.2         1 BMP       0.2117
     22 O1         38.2768   40.2952   36.1182 O.3         1 BMP      -0.2890
     23 H1         38.6796   33.4923   35.3098 H           1 BMP       0.0639
     24 H2         39.1444   33.7701   33.6268 H           1 BMP       0.0639
     25 H3         37.3543   35.3603   34.4267 H           1 BMP       0.0650
     26 H4         40.0806   36.6357   33.8486 H           1 BMP       0.0648
     27 H5         39.1099   37.2270   31.9828 H           1 BMP       0.2100
     28 H6         39.2970   38.6718   34.5021 H           1 BMP       0.0675
     29 H7         36.5890   38.3228   34.5189 H           1 BMP       0.2101
     30 H8         37.1416   37.5529   36.2228 H           1 BMP       0.0991
     31 H9         40.4785   37.8594   39.8385 H           1 BMP       0.2246
     32 H10        39.7171   41.2816   37.8717 H           1 BMP       0.0051
     33 H11        37.3618   39.9346   36.1124 H           1 BMP       0.2637
@<TRIPOS>BOND
     1     1     5   1
     2     1     4  ar
     3     1     3  ar
     4     1     2  ar
     5     5     6   1
     6     6     7   1
     7     7     9   1
     8     7     8   1
     9     8    13   1
    10    13    14  am
    11    13    11   1
    12    11    12   1
    13    11     9   1
    14     9    10   1
    15    14    21   1
    16    14    15  am
    17    15    17  am
    18    15    16   2
    19    17    18  am
    20    18    20   1
    21    18    19   2
    22    20    21   2
    23    21    22   1
    24     6    23   1
    25     6    24   1
    26     7    25   1
    27     9    26   1
    28    10    27   1
    29    11    28   1
    30    12    29   1
    31    13    30   1
    32    17    31   1
    33    20    32   1
    34    22    33   1
@<TRIPOS>SUBSTRUCTURE
     1  BMP      6

