@<TRIPOS>MOLECULE
1lor_ligand_019
    33    34
SMALL
GAST_HUCK
****
This file was generated by PARSER (from files_GN.cpp)

@<TRIPOS>ATOM
      1 P          40.3421   33.0571   34.9912 P.3         1 BMP       0.2008
      2 O1P        41.5539   32.3409   34.6739 O.co2       1 BMP      -0.5537
      3 O2P        39.4085   32.8017   33.9215 O.co2       1 BMP      -0.5537
      4 O3P        39.7619   32.5232   36.1973 O.co2       1 BMP      -0.5537
      5 O5'        40.6371   34.5870   34.9957 O.3         1 BMP      -0.2734
      6 C5'        40.1401   35.3756   36.0931 C.3         1 BMP       0.1071
      7 C4'        39.8729   36.8395   35.6224 C.3         1 BMP       0.1181
      8 O4'        39.7154   36.8955   34.1930 O.3         1 BMP      -0.3367
      9 C3'        38.5627   37.4583   36.1672 C.3         1 BMP       0.1148
     10 O3'        38.6785   37.9632   37.4983 O.3         1 BMP      -0.3864
     11 C2'        38.2186   38.5426   35.1301 C.3         1 BMP       0.1383
     12 O2'        38.5525   39.8614   35.5734 O.3         1 BMP      -0.3837
     13 C1'        39.0336   38.1228   33.8789 C.3         1 BMP       0.2082
     14 N1         38.2193   37.9867   32.6747 N.am        1 BMP      -0.1249
     15 C2         38.2200   38.9533   31.7290 C.2         1 BMP       0.3330
     16 O2         38.9213   39.9540   31.7845 O.2         1 BMP      -0.3821
     17 N3         37.4278   38.8594   30.6617 N.am        1 BMP      -0.1915
     18 C4         36.6764   37.7886   30.4445 C.2         1 BMP       0.1636
     19 O4         36.0134   37.7302   29.4190 O.2         1 BMP      -0.4266
     20 C5         36.6432   36.7918   31.3603 C.2         1 BMP       0.0219
     21 C6         37.3795   36.9056   32.4838 C.2         1 BMP       0.2117
     22 O1         37.1777   35.9551   33.3952 O.3         1 BMP      -0.2890
     23 H1         40.8932   35.3778   36.8841 H           1 BMP       0.0639
     24 H2         39.2192   34.9609   36.5238 H           1 BMP       0.0639
     25 H3         40.7316   37.4643   35.9025 H           1 BMP       0.0650
     26 H4         37.7624   36.7120   36.1576 H           1 BMP       0.0648
     27 H5         38.8366   37.1751   38.0610 H           1 BMP       0.2100
     28 H6         37.1454   38.5345   34.9239 H           1 BMP       0.0675
     29 H7         39.5036   39.8332   35.8108 H           1 BMP       0.2101
     30 H8         39.8292   38.8595   33.7405 H           1 BMP       0.0991
     31 H9         37.4036   39.5810   30.0169 H           1 BMP       0.2246
     32 H10        36.0408   36.0116   31.2145 H           1 BMP       0.0051
     33 H11        37.9929   35.8800   33.9331 H           1 BMP       0.2637
@<TRIPOS>BOND
     1     1     5   1
     2     1     4  ar
     3     1     3  ar
     4     1     2  ar
     5     5     6   1
     6     6     7   1
     7     7     9   1
     8     7     8   1
     9     8    13   1
    10    13    14  am
    11    13    11   1
    12    11    12   1
    13    11     9   1
    14     9    10   1
    15    14    21   1
    16    14    15  am
    17    15    17  am
    18    15    16   2
    19    17    18  am
    20    18    20   1
    21    18    19   2
    22    20    21   2
    23    21    22   1
    24     6    23   1
    25     6    24   1
    26     7    25   1
    27     9    26   1
    28    10    27   1
    29    11    28   1
    30    12    29   1
    31    13    30   1
    32    17    31   1
    33    20    32   1
    34    22    33   1
@<TRIPOS>SUBSTRUCTURE
     1  BMP      6

