@<TRIPOS>MOLECULE
1lor_ligand_017
    33    34
SMALL
GAST_HUCK
****
This file was generated by PARSER (from files_GN.cpp)

@<TRIPOS>ATOM
      1 P          40.8277   33.6001   35.7226 P.3         1 BMP       0.2008
      2 O1P        41.5720   34.1367   36.8401 O.co2       1 BMP      -0.5537
      3 O2P        41.7564   32.8560   34.9018 O.co2       1 BMP      -0.5537
      4 O3P        39.8337   32.6943   36.2461 O.co2       1 BMP      -0.5537
      5 O5'        40.1787   34.7446   34.8657 O.3         1 BMP      -0.2734
      6 C5'        39.0553   35.4156   35.5024 C.3         1 BMP       0.1071
      7 C4'        38.5108   36.5840   34.6298 C.3         1 BMP       0.1181
      8 O4'        37.8753   37.5523   35.4819 O.3         1 BMP      -0.3367
      9 C3'        39.5721   37.3994   33.8555 C.3         1 BMP       0.1148
     10 O3'        39.8727   36.8227   32.5860 O.3         1 BMP      -0.3864
     11 C2'        38.9494   38.7998   33.7510 C.3         1 BMP       0.1383
     12 O2'        38.5220   39.1483   32.4298 O.3         1 BMP      -0.3837
     13 C1'        37.7369   38.7581   34.7135 C.3         1 BMP       0.2082
     14 N1         37.6325   39.9562   35.5390 N.am        1 BMP      -0.1249
     15 C2         36.7149   40.9126   35.2706 C.2         1 BMP       0.3330
     16 O2         35.8706   40.8266   34.3898 O.2         1 BMP      -0.3821
     17 N3         36.7301   42.0695   35.9283 N.am        1 BMP      -0.1915
     18 C4         37.6486   42.3328   36.8480 C.2         1 BMP       0.1636
     19 O4         37.6479   43.4336   37.3901 O.2         1 BMP      -0.4266
     20 C5         38.5900   41.4037   37.1579 C.2         1 BMP       0.0219
     21 C6         38.5601   40.2167   36.5213 C.2         1 BMP       0.2117
     22 O1         39.4915   39.3318   36.8731 O.3         1 BMP      -0.2890
     23 H1         39.3521   35.8245   36.4838 H           1 BMP       0.0639
     24 H2         38.2295   34.6995   35.6614 H           1 BMP       0.0639
     25 H3         37.7715   36.1776   33.9262 H           1 BMP       0.0650
     26 H4         40.4937   37.4472   34.4430 H           1 BMP       0.0648
     27 H5         39.0465   36.9161   32.0624 H           1 BMP       0.2100
     28 H6         39.6892   39.5430   34.0625 H           1 BMP       0.0675
     29 H7         39.3374   39.2154   31.8923 H           1 BMP       0.2101
     30 H8         36.8310   38.6044   34.1165 H           1 BMP       0.0991
     31 H9         36.0739   42.7540   35.7090 H           1 BMP       0.2246
     32 H10        39.2745   41.5879   37.8588 H           1 BMP       0.0051
     33 H11        38.9942   38.5636   37.2272 H           1 BMP       0.2637
@<TRIPOS>BOND
     1     1     5   1
     2     1     4  ar
     3     1     3  ar
     4     1     2  ar
     5     5     6   1
     6     6     7   1
     7     7     9   1
     8     7     8   1
     9     8    13   1
    10    13    14  am
    11    13    11   1
    12    11    12   1
    13    11     9   1
    14     9    10   1
    15    14    21   1
    16    14    15  am
    17    15    17  am
    18    15    16   2
    19    17    18  am
    20    18    20   1
    21    18    19   2
    22    20    21   2
    23    21    22   1
    24     6    23   1
    25     6    24   1
    26     7    25   1
    27     9    26   1
    28    10    27   1
    29    11    28   1
    30    12    29   1
    31    13    30   1
    32    17    31   1
    33    20    32   1
    34    22    33   1
@<TRIPOS>SUBSTRUCTURE
     1  BMP      6

