@<TRIPOS>MOLECULE
1lor_ligand_018
    33    34
SMALL
GAST_HUCK
****
This file was generated by PARSER (from files_GN.cpp)

@<TRIPOS>ATOM
      1 P          39.6992   32.7667   35.1379 P.3         1 BMP       0.2008
      2 O1P        38.8331   31.6906   35.5445 O.co2       1 BMP      -0.5537
      3 O2P        40.9870   32.2261   34.7755 O.co2       1 BMP      -0.5537
      4 O3P        39.0953   33.3613   33.9733 O.co2       1 BMP      -0.5537
      5 O5'        39.8036   33.8298   36.2763 O.3         1 BMP      -0.2734
      6 C5'        40.6211   34.9881   35.9641 C.3         1 BMP       0.1071
      7 C4'        40.6274   36.0894   37.0670 C.3         1 BMP       0.1181
      8 O4'        40.5836   37.3927   36.4616 O.3         1 BMP      -0.3367
      9 C3'        39.4452   36.0706   38.0514 C.3         1 BMP       0.1148
     10 O3'        39.6307   35.1096   39.0907 O.3         1 BMP      -0.3864
     11 C2'        39.4076   37.5211   38.5625 C.3         1 BMP       0.1383
     12 O2'        40.1204   37.6673   39.7937 O.3         1 BMP      -0.3837
     13 C1'        40.0956   38.3373   37.4322 C.3         1 BMP       0.2082
     14 N1         39.2049   39.3483   36.8671 N.am        1 BMP      -0.1249
     15 C2         38.2823   39.0211   35.9315 C.2         1 BMP       0.3330
     16 O2         38.1572   37.9087   35.4364 O.2         1 BMP      -0.3821
     17 N3         37.4034   39.9286   35.5138 N.am        1 BMP      -0.1915
     18 C4         37.3920   41.1660   35.9939 C.2         1 BMP       0.1636
     19 O4         36.5479   41.9473   35.5810 O.2         1 BMP      -0.4266
     20 C5         38.3273   41.5569   36.8980 C.2         1 BMP       0.0219
     21 C6         39.2227   40.6478   37.3320 C.2         1 BMP       0.2117
     22 O1         40.1033   41.0846   38.2291 O.3         1 BMP      -0.2890
     23 H1         40.2670   35.4510   35.0346 H           1 BMP       0.0639
     24 H2         41.6576   34.6679   35.8100 H           1 BMP       0.0639
     25 H3         41.5582   36.0246   37.6404 H           1 BMP       0.0650
     26 H4         38.5160   35.8530   37.5184 H           1 BMP       0.0648
     27 H5         39.7648   34.2531   38.6355 H           1 BMP       0.2100
     28 H6         38.3702   37.8326   38.7295 H           1 BMP       0.0675
     29 H7         40.0302   38.6146   40.0321 H           1 BMP       0.2101
     30 H8         41.0080   38.8045   37.8169 H           1 BMP       0.0991
     31 H9         36.7430   39.6762   34.8475 H           1 BMP       0.2246
     32 H10        38.3486   42.4946   37.2316 H           1 BMP       0.0051
     33 H11        40.0767   40.4314   38.9620 H           1 BMP       0.2637
@<TRIPOS>BOND
     1     1     5   1
     2     1     4  ar
     3     1     3  ar
     4     1     2  ar
     5     5     6   1
     6     6     7   1
     7     7     9   1
     8     7     8   1
     9     8    13   1
    10    13    14  am
    11    13    11   1
    12    11    12   1
    13    11     9   1
    14     9    10   1
    15    14    21   1
    16    14    15  am
    17    15    17  am
    18    15    16   2
    19    17    18  am
    20    18    20   1
    21    18    19   2
    22    20    21   2
    23    21    22   1
    24     6    23   1
    25     6    24   1
    26     7    25   1
    27     9    26   1
    28    10    27   1
    29    11    28   1
    30    12    29   1
    31    13    30   1
    32    17    31   1
    33    20    32   1
    34    22    33   1
@<TRIPOS>SUBSTRUCTURE
     1  BMP      6

