@<TRIPOS>MOLECULE
1lor_ligand_015
    33    34
SMALL
GAST_HUCK
****
This file was generated by PARSER (from files_GN.cpp)

@<TRIPOS>ATOM
      1 P          41.2796   41.0104   40.3678 P.3         1 BMP       0.2008
      2 O1P        42.1468   40.1796   41.1686 O.co2       1 BMP      -0.5537
      3 O2P        40.1825   41.4181   41.2130 O.co2       1 BMP      -0.5537
      4 O3P        41.9715   42.2131   39.9714 O.co2       1 BMP      -0.5537
      5 O5'        40.6815   40.2031   39.1794 O.3         1 BMP      -0.2734
      6 C5'        41.4858   40.0865   37.9784 C.3         1 BMP       0.1071
      7 C4'        40.8051   39.2172   36.8851 C.3         1 BMP       0.1181
      8 O4'        41.1415   37.8341   36.9893 O.3         1 BMP      -0.3367
      9 C3'        39.2574   39.2110   36.8698 C.3         1 BMP       0.1148
     10 O3'        38.7422   40.3499   36.1838 O.3         1 BMP      -0.3864
     11 C2'        38.9082   37.8608   36.2151 C.3         1 BMP       0.1383
     12 O2'        38.2919   38.0305   34.9412 O.3         1 BMP      -0.3837
     13 C1'        40.2604   37.1069   36.1098 C.3         1 BMP       0.2082
     14 N1         40.1450   35.6739   36.3726 N.am        1 BMP      -0.1249
     15 C2         40.4439   35.1258   37.5705 C.2         1 BMP       0.3330
     16 O2         40.7894   35.7569   38.5587 O.2         1 BMP      -0.3821
     17 N3         40.3297   33.8108   37.7557 N.am        1 BMP      -0.1915
     18 C4         39.9203   32.9988   36.7922 C.2         1 BMP       0.1636
     19 O4         39.7080   31.8282   37.0677 O.2         1 BMP      -0.4266
     20 C5         39.5932   33.5018   35.5727 C.2         1 BMP       0.0219
     21 C6         39.6943   34.8290   35.3752 C.2         1 BMP       0.2117
     22 O1         39.3189   35.2684   34.1773 O.3         1 BMP      -0.2890
     23 H1         42.4617   39.6520   38.2110 H           1 BMP       0.0639
     24 H2         41.6430   41.0813   37.5567 H           1 BMP       0.0639
     25 H3         41.1698   39.5735   35.9101 H           1 BMP       0.0650
     26 H4         38.8551   39.2099   37.8857 H           1 BMP       0.0648
     27 H5         38.6182   41.0328   36.8763 H           1 BMP       0.2100
     28 H6         38.2131   37.3080   36.8558 H           1 BMP       0.0675
     29 H7         37.3522   38.2271   35.1474 H           1 BMP       0.2101
     30 H8         40.6762   37.2503   35.1048 H           1 BMP       0.0991
     31 H9         40.5164   33.4458   38.6358 H           1 BMP       0.2246
     32 H10        39.2553   32.8987   34.8556 H           1 BMP       0.0051
     33 H11        38.6368   35.9430   34.3556 H           1 BMP       0.2637
@<TRIPOS>BOND
     1     1     5   1
     2     1     4  ar
     3     1     3  ar
     4     1     2  ar
     5     5     6   1
     6     6     7   1
     7     7     9   1
     8     7     8   1
     9     8    13   1
    10    13    14  am
    11    13    11   1
    12    11    12   1
    13    11     9   1
    14     9    10   1
    15    14    21   1
    16    14    15  am
    17    15    17  am
    18    15    16   2
    19    17    18  am
    20    18    20   1
    21    18    19   2
    22    20    21   2
    23    21    22   1
    24     6    23   1
    25     6    24   1
    26     7    25   1
    27     9    26   1
    28    10    27   1
    29    11    28   1
    30    12    29   1
    31    13    30   1
    32    17    31   1
    33    20    32   1
    34    22    33   1
@<TRIPOS>SUBSTRUCTURE
     1  BMP      6

