@<TRIPOS>MOLECULE
1n1m_ligand_005
    31    31
SMALL
GAST_HUCK
****
This file was generated by PARSER (from files_GN.cpp)

@<TRIPOS>ATOM
      1 C1         82.1820   68.6313  104.4118 C.3         1 A3M      -0.0307
      2 C2         83.0948   69.1156  103.2726 C.3         1 A3M       0.0341
      3 N3         83.0079   68.1092  102.2543 N.am        1 A3M      -0.2686
      4 C4         82.3194   66.9334  102.7097 C.3         1 A3M       0.0341
      5 C5         82.1416   67.1107  104.2251 C.3         1 A3M      -0.0307
      6 C14        83.5271   68.2535  101.0262 C.2         1 A3M       0.2272
      7 C15        83.4626   67.2373   99.9611 C.3         1 A3M       0.0674
      8 C16        84.7579   66.3463   99.7835 C.3         1 A3M       0.0139
      9 C17        85.6561   66.1762  101.0455 C.3         1 A3M      -0.0553
     10 O18        84.1954   69.2537  100.7945 O.2         1 A3M      -0.3907
     11 N19        83.1182   67.8815   98.6839 N.4         1 A3M       0.2381
     12 C26        84.3980   64.9329   99.2318 C.3         1 A3M      -0.0553
     13 H1         81.1749   69.0419  104.2876 H           1 A3M       0.0285
     14 H2         82.5695   68.9085  105.3950 H           1 A3M       0.0285
     15 H3         84.1305   69.2137  103.6166 H           1 A3M       0.0522
     16 H4         82.7465   70.0823  102.8979 H           1 A3M       0.0522
     17 H5         82.8807   66.0103  102.5268 H           1 A3M       0.0522
     18 H6         81.3425   66.8684  102.2183 H           1 A3M       0.0522
     19 H7         81.1975   66.6743  104.5699 H           1 A3M       0.0285
     20 H8         82.9770   66.6453  104.7623 H           1 A3M       0.0285
     21 H9         82.6070   66.5919  100.1590 H           1 A3M       0.1101
     22 H10        85.4043   66.8193   99.0345 H           1 A3M       0.0376
     23 H11        86.5730   65.6435  100.7807 H           1 A3M       0.0236
     24 H12        85.1423   65.6123  101.8263 H           1 A3M       0.0236
     25 H13        85.9502   67.1485  101.4511 H           1 A3M       0.0236
     26 H14        82.2529   68.4093   98.8007 H           1 A3M       0.2015
     27 H15        82.9895   67.1771   97.9531 H           1 A3M       0.2015
     28 H16        83.8743   68.5137   98.4090 H           1 A3M       0.2015
     29 H17        83.8622   65.0130   98.2836 H           1 A3M       0.0236
     30 H18        83.7617   64.4026   99.9482 H           1 A3M       0.0236
     31 H19        85.2934   64.3257   99.0600 H           1 A3M       0.0236
@<TRIPOS>BOND
     1     1     2   1
     2     1     5   1
     3     2     3   1
     4     3     4   1
     5     3     6  am
     6     4     5   1
     7     6     7   1
     8     6    10   2
     9     7     8   1
    10     7    11   1
    11     8     9   1
    12     8    12   1
    13     1    13   1
    14     1    14   1
    15     2    15   1
    16     2    16   1
    17     4    17   1
    18     4    18   1
    19     5    19   1
    20     5    20   1
    21     7    21   1
    22     8    22   1
    23     9    23   1
    24     9    24   1
    25     9    25   1
    26    11    26   1
    27    11    27   1
    28    11    28   1
    29    12    29   1
    30    12    30   1
    31    12    31   1
@<TRIPOS>SUBSTRUCTURE
     1  A3M      1

