@<TRIPOS>MOLECULE
1n1m_ligand_004
    31    31
SMALL
GAST_HUCK
****
This file was generated by PARSER (from files_GN.cpp)

@<TRIPOS>ATOM
      1 C1         78.1583   73.7733  101.5117 C.3         1 A3M      -0.0307
      2 C2         79.4228   73.0457  101.0376 C.3         1 A3M       0.0341
      3 N3         79.7875   73.6631   99.7894 N.am        1 A3M      -0.2686
      4 C4         78.7449   74.5309   99.3109 C.3         1 A3M       0.0341
      5 C5         77.5234   74.2875  100.2177 C.3         1 A3M      -0.0307
      6 C14        80.9737   73.4352   99.1875 C.2         1 A3M       0.2272
      7 C15        81.4808   74.0031   97.9265 C.3         1 A3M       0.0674
      8 C16        81.4394   75.5678   97.7789 C.3         1 A3M       0.0139
      9 C17        81.9297   76.3371   99.0394 C.3         1 A3M      -0.0553
     10 O18        81.7334   72.6344   99.7227 O.2         1 A3M      -0.3907
     11 N19        80.8142   73.3022   96.8096 N.4         1 A3M       0.2381
     12 C26        82.2465   76.0697   96.5393 C.3         1 A3M      -0.0553
     13 H1         78.4402   74.6229  102.1409 H           1 A3M       0.0285
     14 H2         77.4850   73.1211  102.0679 H           1 A3M       0.0285
     15 H3         79.2219   71.9835  100.8829 H           1 A3M       0.0522
     16 H4         80.2110   73.1497  101.7877 H           1 A3M       0.0522
     17 H5         78.4762   74.3197   98.2718 H           1 A3M       0.0522
     18 H6         79.0485   75.5815   99.4017 H           1 A3M       0.0522
     19 H7         76.9514   75.2051  100.3832 H           1 A3M       0.0285
     20 H8         76.8605   73.5331   99.7837 H           1 A3M       0.0285
     21 H9         82.5357   73.7297   97.8307 H           1 A3M       0.1101
     22 H10        80.4085   75.8617   97.5895 H           1 A3M       0.0376
     23 H11        81.7960   77.4121   98.9095 H           1 A3M       0.0236
     24 H12        82.9883   76.1458   99.2290 H           1 A3M       0.0236
     25 H13        81.3622   76.0447   99.9222 H           1 A3M       0.0236
     26 H14        80.7809   72.3022   97.0044 H           1 A3M       0.2015
     27 H15        81.3463   73.4325   95.9478 H           1 A3M       0.2015
     28 H16        79.8619   73.6486   96.6837 H           1 A3M       0.2015
     29 H17        81.8888   75.5895   95.6254 H           1 A3M       0.0236
     30 H18        83.3169   75.8646   96.6478 H           1 A3M       0.0236
     31 H19        82.1220   77.1494   96.4180 H           1 A3M       0.0236
@<TRIPOS>BOND
     1     1     2   1
     2     1     5   1
     3     2     3   1
     4     3     4   1
     5     3     6  am
     6     4     5   1
     7     6     7   1
     8     6    10   2
     9     7     8   1
    10     7    11   1
    11     8     9   1
    12     8    12   1
    13     1    13   1
    14     1    14   1
    15     2    15   1
    16     2    16   1
    17     4    17   1
    18     4    18   1
    19     5    19   1
    20     5    20   1
    21     7    21   1
    22     8    22   1
    23     9    23   1
    24     9    24   1
    25     9    25   1
    26    11    26   1
    27    11    27   1
    28    11    28   1
    29    12    29   1
    30    12    30   1
    31    12    31   1
@<TRIPOS>SUBSTRUCTURE
     1  A3M      1

