@<TRIPOS>MOLECULE
1n1m_ligand_016
    31    31
SMALL
GAST_HUCK
****
This file was generated by PARSER (from files_GN.cpp)

@<TRIPOS>ATOM
      1 C1         80.3952   73.3764   98.7491 C.3         1 A3M      -0.0307
      2 C2         81.1389   74.5969   98.1756 C.3         1 A3M       0.0341
      3 N3         81.5871   75.3563   99.3081 N.am        1 A3M      -0.2686
      4 C4         81.0552   74.8458  100.5412 C.3         1 A3M       0.0341
      5 C5         79.9663   73.8346  100.1465 C.3         1 A3M      -0.0307
      6 C14        82.4215   76.4121   99.2527 C.2         1 A3M       0.2272
      7 C15        82.9865   76.9952   98.0307 C.3         1 A3M       0.0674
      8 C16        84.4929   76.6197   97.7797 C.3         1 A3M       0.0139
      9 C17        85.0242   77.2193   96.4463 C.3         1 A3M      -0.0553
     10 O18        82.7435   76.9526  100.3091 O.2         1 A3M      -0.3907
     11 N19        82.7796   78.4546   98.0286 N.4         1 A3M       0.2381
     12 C26        85.4627   76.9934   98.9380 C.3         1 A3M      -0.0553
     13 H1         81.0771   72.5250   98.8298 H           1 A3M       0.0285
     14 H2         79.5387   73.0912   98.1328 H           1 A3M       0.0285
     15 H3         80.4605   75.2003   97.5652 H           1 A3M       0.0522
     16 H4         81.9764   74.2568   97.5602 H           1 A3M       0.0522
     17 H5         80.6119   75.6373  101.1524 H           1 A3M       0.0522
     18 H6         81.8488   74.3534  101.1111 H           1 A3M       0.0522
     19 H7         79.9062   73.0029  100.8533 H           1 A3M       0.0285
     20 H8         78.9935   74.3324  100.0950 H           1 A3M       0.0285
     21 H9         82.4217   76.6429   97.1632 H           1 A3M       0.1101
     22 H10        84.5354   75.5302   97.6661 H           1 A3M       0.0376
     23 H11        86.0074   76.8089   96.2096 H           1 A3M       0.0236
     24 H12        85.1158   78.3054   96.5155 H           1 A3M       0.0236
     25 H13        84.3509   76.9831   95.6233 H           1 A3M       0.0236
     26 H14        81.7851   78.6775   98.1366 H           1 A3M       0.2015
     27 H15        83.1038   78.8490   97.1444 H           1 A3M       0.2015
     28 H16        83.3079   78.8701   98.7975 H           1 A3M       0.2015
     29 H17        85.2044   76.4611   99.8509 H           1 A3M       0.0236
     30 H18        85.4322   78.0659   99.1400 H           1 A3M       0.0236
     31 H19        86.4881   76.7154   98.6859 H           1 A3M       0.0236
@<TRIPOS>BOND
     1     1     2   1
     2     1     5   1
     3     2     3   1
     4     3     4   1
     5     3     6  am
     6     4     5   1
     7     6     7   1
     8     6    10   2
     9     7     8   1
    10     7    11   1
    11     8     9   1
    12     8    12   1
    13     1    13   1
    14     1    14   1
    15     2    15   1
    16     2    16   1
    17     4    17   1
    18     4    18   1
    19     5    19   1
    20     5    20   1
    21     7    21   1
    22     8    22   1
    23     9    23   1
    24     9    24   1
    25     9    25   1
    26    11    26   1
    27    11    27   1
    28    11    28   1
    29    12    29   1
    30    12    30   1
    31    12    31   1
@<TRIPOS>SUBSTRUCTURE
     1  A3M      1

