@<TRIPOS>MOLECULE
1n1m_ligand_002
    31    31
SMALL
GAST_HUCK
****
This file was generated by PARSER (from files_GN.cpp)

@<TRIPOS>ATOM
      1 C1         82.1688   77.1192  100.4180 C.3         1 A3M      -0.0307
      2 C2         81.5136   75.7273  100.3813 C.3         1 A3M       0.0341
      3 N3         80.9064   75.6094   99.0868 N.am        1 A3M      -0.2686
      4 C4         80.8539   76.8679   98.4058 C.3         1 A3M       0.0341
      5 C5         81.3837   77.9306   99.3827 C.3         1 A3M      -0.0307
      6 C14        80.4173   74.4409   98.6160 C.2         1 A3M       0.2272
      7 C15        79.7688   74.2447   97.3110 C.3         1 A3M       0.0674
      8 C16        78.2324   73.8378   97.3187 C.3         1 A3M       0.0139
      9 C17        77.5131   73.7464   98.7024 C.3         1 A3M      -0.0553
     10 O18        80.5400   73.4342   99.3033 O.2         1 A3M      -0.3907
     11 N19        80.5597   73.2619   96.5401 N.4         1 A3M       0.2381
     12 C26        77.3994   74.7789   96.3973 C.3         1 A3M      -0.0553
     13 H1         83.2167   77.0485  100.1147 H           1 A3M       0.0285
     14 H2         82.1110   77.5644  101.4126 H           1 A3M       0.0285
     15 H3         80.7436   75.6468  101.1495 H           1 A3M       0.0522
     16 H4         82.2765   74.9641  100.5512 H           1 A3M       0.0522
     17 H5         79.8272   77.1190   98.1244 H           1 A3M       0.0522
     18 H6         81.4813   76.8431   97.5064 H           1 A3M       0.0522
     19 H7         82.0198   78.6673   98.8838 H           1 A3M       0.0285
     20 H8         80.5537   78.4545   99.8661 H           1 A3M       0.0285
     21 H9         79.8766   75.1534   96.7318 H           1 A3M       0.1101
     22 H10        78.1429   72.8366   96.8875 H           1 A3M       0.0376
     23 H11        76.4479   73.5509   98.5708 H           1 A3M       0.0236
     24 H12        77.6230   74.6787   99.2608 H           1 A3M       0.0236
     25 H13        77.9274   72.9265   99.2978 H           1 A3M       0.0236
     26 H14        81.5483   73.5229   96.5321 H           1 A3M       0.2015
     27 H15        80.2336   73.2349   95.5698 H           1 A3M       0.2015
     28 H16        80.4581   72.3347   96.9481 H           1 A3M       0.2015
     29 H17        77.8292   74.8002   95.3915 H           1 A3M       0.0236
     30 H18        77.3963   75.7939   96.7991 H           1 A3M       0.0236
     31 H19        76.3693   74.4314   96.3122 H           1 A3M       0.0236
@<TRIPOS>BOND
     1     1     2   1
     2     1     5   1
     3     2     3   1
     4     3     4   1
     5     3     6  am
     6     4     5   1
     7     6     7   1
     8     6    10   2
     9     7     8   1
    10     7    11   1
    11     8     9   1
    12     8    12   1
    13     1    13   1
    14     1    14   1
    15     2    15   1
    16     2    16   1
    17     4    17   1
    18     4    18   1
    19     5    19   1
    20     5    20   1
    21     7    21   1
    22     8    22   1
    23     9    23   1
    24     9    24   1
    25     9    25   1
    26    11    26   1
    27    11    27   1
    28    11    28   1
    29    12    29   1
    30    12    30   1
    31    12    31   1
@<TRIPOS>SUBSTRUCTURE
     1  A3M      1

