@<TRIPOS>MOLECULE
1n1m_ligand_015
    31    31
SMALL
GAST_HUCK
****
This file was generated by PARSER (from files_GN.cpp)

@<TRIPOS>ATOM
      1 C1         79.2424   79.7086   99.7954 C.3         1 A3M      -0.0307
      2 C2         80.4556   78.7677   99.6554 C.3         1 A3M       0.0341
      3 N3         79.9828   77.5591   99.0418 N.am        1 A3M      -0.2686
      4 C4         78.5664   77.5953   98.7920 C.3         1 A3M       0.0341
      5 C5         78.0180   78.8222   99.5435 C.3         1 A3M      -0.0307
      6 C14        80.7557   76.4970   98.7455 C.2         1 A3M       0.2272
      7 C15        82.1819   76.3472   99.0906 C.3         1 A3M       0.0674
      8 C16        83.1570   76.1170   97.8762 C.3         1 A3M       0.0139
      9 C17        82.8220   77.0412   96.6708 C.3         1 A3M      -0.0553
     10 O18        80.2255   75.4999   98.2644 O.2         1 A3M      -0.3907
     11 N19        82.2486   75.2248  100.0445 N.4         1 A3M       0.2381
     12 C26        84.6563   76.3058   98.2605 C.3         1 A3M      -0.0553
     13 H1         79.2891   80.5083   99.0516 H           1 A3M       0.0285
     14 H2         79.2025   80.1543  100.7923 H           1 A3M       0.0285
     15 H3         80.8798   78.5485  100.6404 H           1 A3M       0.0522
     16 H4         81.2233   79.2406   99.0346 H           1 A3M       0.0522
     17 H5         78.0632   76.6900   99.1523 H           1 A3M       0.0522
     18 H6         78.3879   77.6959   97.7187 H           1 A3M       0.0522
     19 H7         77.2573   79.3499   98.9621 H           1 A3M       0.0285
     20 H8         77.5842   78.5127  100.4988 H           1 A3M       0.0285
     21 H9         82.5509   77.2222   99.6288 H           1 A3M       0.1101
     22 H10        83.0494   75.0797   97.5382 H           1 A3M       0.0376
     23 H11        83.5728   76.9413   95.8843 H           1 A3M       0.0236
     24 H12        82.7833   78.0869   96.9875 H           1 A3M       0.0236
     25 H13        81.8559   76.7606   96.2463 H           1 A3M       0.0236
     26 H14        81.6703   75.4396  100.8623 H           1 A3M       0.2015
     27 H15        83.2116   75.0769  100.3485 H           1 A3M       0.2015
     28 H16        81.8984   74.3716   99.5980 H           1 A3M       0.2015
     29 H17        84.9559   75.6008   99.0373 H           1 A3M       0.0236
     30 H18        84.8360   77.3220   98.6202 H           1 A3M       0.0236
     31 H19        85.3005   76.1279   97.3937 H           1 A3M       0.0236
@<TRIPOS>BOND
     1     1     2   1
     2     1     5   1
     3     2     3   1
     4     3     4   1
     5     3     6  am
     6     4     5   1
     7     6     7   1
     8     6    10   2
     9     7     8   1
    10     7    11   1
    11     8     9   1
    12     8    12   1
    13     1    13   1
    14     1    14   1
    15     2    15   1
    16     2    16   1
    17     4    17   1
    18     4    18   1
    19     5    19   1
    20     5    20   1
    21     7    21   1
    22     8    22   1
    23     9    23   1
    24     9    24   1
    25     9    25   1
    26    11    26   1
    27    11    27   1
    28    11    28   1
    29    12    29   1
    30    12    30   1
    31    12    31   1
@<TRIPOS>SUBSTRUCTURE
     1  A3M      1

