@<TRIPOS>MOLECULE
1n1m_ligand_006
    31    31
SMALL
GAST_HUCK
****
This file was generated by PARSER (from files_GN.cpp)

@<TRIPOS>ATOM
      1 C1         82.6353   65.0190  103.9126 C.3         1 A3M      -0.0307
      2 C2         83.9749   65.6086  103.4552 C.3         1 A3M       0.0341
      3 N3         83.9199   65.7366  102.0188 N.am        1 A3M      -0.2686
      4 C4         82.6901   65.1771  101.5146 C.3         1 A3M       0.0341
      5 C5         82.1141   64.3184  102.6533 C.3         1 A3M      -0.0307
      6 C14        84.9360   66.3093  101.3305 C.2         1 A3M       0.2272
      7 C15        85.1319   66.4442   99.8704 C.3         1 A3M       0.0674
      8 C16        84.4138   67.6532   99.1646 C.3         1 A3M       0.0139
      9 C17        84.6413   67.6690   97.6223 C.3         1 A3M      -0.0553
     10 O18        85.8761   66.7492  101.9930 O.2         1 A3M      -0.3907
     11 N19        85.0015   65.1523   99.1768 N.4         1 A3M       0.2381
     12 C26        82.9028   67.8288   99.4691 C.3         1 A3M      -0.0553
     13 H1         81.9383   65.8153  104.2026 H           1 A3M       0.0285
     14 H2         82.7501   64.3235  104.7458 H           1 A3M       0.0285
     15 H3         84.7925   64.9412  103.7328 H           1 A3M       0.0522
     16 H4         84.1234   66.5802  103.9307 H           1 A3M       0.0522
     17 H5         82.8237   64.5629  100.6280 H           1 A3M       0.0522
     18 H6         81.9791   65.9763  101.3022 H           1 A3M       0.0522
     19 H7         81.0161   64.2757  102.6338 H           1 A3M       0.0285
     20 H8         82.5092   63.3005  102.5990 H           1 A3M       0.0285
     21 H9         86.1950   66.6588   99.7089 H           1 A3M       0.1101
     22 H10        84.9010   68.5558   99.5503 H           1 A3M       0.0376
     23 H11        84.2596   68.5941   97.1846 H           1 A3M       0.0236
     24 H12        84.1284   66.8345   97.1421 H           1 A3M       0.0236
     25 H13        85.7057   67.6087   97.3930 H           1 A3M       0.0236
     26 H14        85.6248   64.4673   99.6169 H           1 A3M       0.2015
     27 H15        85.2894   65.2591   98.2013 H           1 A3M       0.2015
     28 H16        84.0423   64.8086   99.1946 H           1 A3M       0.2015
     29 H17        82.7591   68.0123  100.5381 H           1 A3M       0.0236
     30 H18        82.3446   66.9453   99.1524 H           1 A3M       0.0236
     31 H19        82.5082   68.6949   98.9341 H           1 A3M       0.0236
@<TRIPOS>BOND
     1     1     2   1
     2     1     5   1
     3     2     3   1
     4     3     4   1
     5     3     6  am
     6     4     5   1
     7     6     7   1
     8     6    10   2
     9     7     8   1
    10     7    11   1
    11     8     9   1
    12     8    12   1
    13     1    13   1
    14     1    14   1
    15     2    15   1
    16     2    16   1
    17     4    17   1
    18     4    18   1
    19     5    19   1
    20     5    20   1
    21     7    21   1
    22     8    22   1
    23     9    23   1
    24     9    24   1
    25     9    25   1
    26    11    26   1
    27    11    27   1
    28    11    28   1
    29    12    29   1
    30    12    30   1
    31    12    31   1
@<TRIPOS>SUBSTRUCTURE
     1  A3M      1

