@<TRIPOS>MOLECULE
1n1m_ligand_008
    31    31
SMALL
GAST_HUCK
****
This file was generated by PARSER (from files_GN.cpp)

@<TRIPOS>ATOM
      1 C1         76.2402   71.9327   99.8964 C.3         1 A3M      -0.0307
      2 C2         76.6364   73.1245   99.0070 C.3         1 A3M       0.0341
      3 N3         78.0603   73.0681   98.8802 N.am        1 A3M      -0.2686
      4 C4         78.6460   72.1202   99.7799 C.3         1 A3M       0.0341
      5 C5         77.5095   71.6464  100.7024 C.3         1 A3M      -0.0307
      6 C14        78.7348   73.8128   97.9750 C.2         1 A3M       0.2272
      7 C15        80.1898   73.8336   97.7880 C.3         1 A3M       0.0674
      8 C16        80.8866   75.2548   97.8652 C.3         1 A3M       0.0139
      9 C17        80.1093   76.3475   98.6533 C.3         1 A3M      -0.0553
     10 O18        78.0911   74.5240   97.2191 O.2         1 A3M      -0.3907
     11 N19        80.4770   73.1949   96.4877 N.4         1 A3M       0.2381
     12 C26        82.3267   75.1411   98.4571 C.3         1 A3M      -0.0553
     13 H1         75.9910   71.0677   99.2752 H           1 A3M       0.0285
     14 H2         75.3911   72.1700  100.5403 H           1 A3M       0.0285
     15 H3         76.3459   74.0701   99.4770 H           1 A3M       0.0522
     16 H4         76.1324   73.0379   98.0382 H           1 A3M       0.0522
     17 H5         79.4389   72.5644  100.3875 H           1 A3M       0.0522
     18 H6         79.0468   71.2761   99.2123 H           1 A3M       0.0522
     19 H7         77.6024   70.5856  100.9534 H           1 A3M       0.0285
     20 H8         77.5046   72.2340  101.6253 H           1 A3M       0.0285
     21 H9         80.6650   73.1849   98.5242 H           1 A3M       0.1101
     22 H10        80.9964   75.6359   96.8437 H           1 A3M       0.0376
     23 H11        80.6693   77.2840   98.6805 H           1 A3M       0.0236
     24 H12        79.9085   76.0143   99.6743 H           1 A3M       0.0236
     25 H13        79.1591   76.5821   98.1750 H           1 A3M       0.0236
     26 H14        80.2107   72.2116   96.5376 H           1 A3M       0.2015
     27 H15        81.4765   73.2567   96.2768 H           1 A3M       0.2015
     28 H16        79.9445   73.6414   95.7360 H           1 A3M       0.2015
     29 H17        82.9158   74.4096   97.9029 H           1 A3M       0.0236
     30 H18        82.2801   74.8299   99.5038 H           1 A3M       0.0236
     31 H19        82.8396   76.1034   98.4075 H           1 A3M       0.0236
@<TRIPOS>BOND
     1     1     2   1
     2     1     5   1
     3     2     3   1
     4     3     4   1
     5     3     6  am
     6     4     5   1
     7     6     7   1
     8     6    10   2
     9     7     8   1
    10     7    11   1
    11     8     9   1
    12     8    12   1
    13     1    13   1
    14     1    14   1
    15     2    15   1
    16     2    16   1
    17     4    17   1
    18     4    18   1
    19     5    19   1
    20     5    20   1
    21     7    21   1
    22     8    22   1
    23     9    23   1
    24     9    24   1
    25     9    25   1
    26    11    26   1
    27    11    27   1
    28    11    28   1
    29    12    29   1
    30    12    30   1
    31    12    31   1
@<TRIPOS>SUBSTRUCTURE
     1  A3M      1

