@<TRIPOS>MOLECULE
1n1m_ligand_012
    31    31
SMALL
GAST_HUCK
****
This file was generated by PARSER (from files_GN.cpp)

@<TRIPOS>ATOM
      1 C1         83.7963   77.6725   98.8023 C.3         1 A3M      -0.0307
      2 C2         82.2564   77.6318   98.7544 C.3         1 A3M       0.0341
      3 N3         81.8887   76.4019   98.0924 N.am        1 A3M      -0.2686
      4 C4         83.0635   75.6863   97.6876 C.3         1 A3M       0.0341
      5 C5         84.2079   76.7103   97.6873 C.3         1 A3M      -0.0307
      6 C14        80.6011   76.0369   97.9058 C.2         1 A3M       0.2272
      7 C15        80.0379   74.9578   97.0658 C.3         1 A3M       0.0674
      8 C16        79.4424   73.7355   97.8471 C.3         1 A3M       0.0139
      9 C17        78.7464   72.7227   96.8951 C.3         1 A3M      -0.0553
     10 O18        79.7468   76.7056   98.4759 O.2         1 A3M      -0.3907
     11 N19        80.8911   74.5848   95.9233 N.4         1 A3M       0.2381
     12 C26        80.4331   73.0013   98.7826 C.3         1 A3M      -0.0553
     13 H1         84.1628   77.2923   99.7613 H           1 A3M       0.0285
     14 H2         84.1921   78.6787   98.6377 H           1 A3M       0.0285
     15 H3         81.8798   78.4815   98.1773 H           1 A3M       0.0522
     16 H4         81.8494   77.6805   99.7676 H           1 A3M       0.0522
     17 H5         83.0038   75.2480   96.7021 H           1 A3M       0.0522
     18 H6         83.2897   74.9007   98.4089 H           1 A3M       0.0522
     19 H7         85.1814   76.2513   97.8870 H           1 A3M       0.0285
     20 H8         84.2397   77.2325   96.7248 H           1 A3M       0.0285
     21 H9         79.1618   75.3719   96.5522 H           1 A3M       0.1101
     22 H10        78.6556   74.1331   98.4981 H           1 A3M       0.0376
     23 H11        78.2436   71.9417   97.4694 H           1 A3M       0.0236
     24 H12        79.4705   72.2506   96.2292 H           1 A3M       0.0236
     25 H13        77.9965   73.2269   96.2853 H           1 A3M       0.0236
     26 H14        81.3027   75.4293   95.5155 H           1 A3M       0.2015
     27 H15        80.3325   74.1139   95.1999 H           1 A3M       0.2015
     28 H16        81.6460   73.9641   96.2074 H           1 A3M       0.2015
     29 H17        80.7761   73.6665   99.5742 H           1 A3M       0.0236
     30 H18        81.2905   72.6238   98.2254 H           1 A3M       0.0236
     31 H19        79.9302   72.1633   99.2650 H           1 A3M       0.0236
@<TRIPOS>BOND
     1     1     2   1
     2     1     5   1
     3     2     3   1
     4     3     4   1
     5     3     6  am
     6     4     5   1
     7     6     7   1
     8     6    10   2
     9     7     8   1
    10     7    11   1
    11     8     9   1
    12     8    12   1
    13     1    13   1
    14     1    14   1
    15     2    15   1
    16     2    16   1
    17     4    17   1
    18     4    18   1
    19     5    19   1
    20     5    20   1
    21     7    21   1
    22     8    22   1
    23     9    23   1
    24     9    24   1
    25     9    25   1
    26    11    26   1
    27    11    27   1
    28    11    28   1
    29    12    29   1
    30    12    30   1
    31    12    31   1
@<TRIPOS>SUBSTRUCTURE
     1  A3M      1

