@<TRIPOS>MOLECULE
1n1m_ligand_014
    31    31
SMALL
GAST_HUCK
****
This file was generated by PARSER (from files_GN.cpp)

@<TRIPOS>ATOM
      1 C1         73.2934   71.1027   99.2334 C.3         1 A3M      -0.0307
      2 C2         73.5082   72.4138   98.4597 C.3         1 A3M       0.0341
      3 N3         74.7250   72.2489   97.7169 N.am        1 A3M      -0.2686
      4 C4         75.4139   71.0382   98.0804 C.3         1 A3M       0.0341
      5 C5         74.7107   70.5320   99.3540 C.3         1 A3M      -0.0307
      6 C14        75.2048   73.1975   96.8842 C.2         1 A3M       0.2272
      7 C15        76.4729   73.1508   96.1490 C.3         1 A3M       0.0674
      8 C16        77.6494   73.9549   96.8103 C.3         1 A3M       0.0139
      9 C17        77.3480   75.4598   97.0712 C.3         1 A3M      -0.0553
     10 O18        74.5352   74.2148   96.7316 O.2         1 A3M      -0.3907
     11 N19        76.2818   73.6239   94.7594 N.4         1 A3M       0.2381
     12 C26        78.1930   73.2972   98.1117 C.3         1 A3M      -0.0553
     13 H1         72.6639   70.4206   98.6560 H           1 A3M       0.0285
     14 H2         72.8358   71.2743  100.2090 H           1 A3M       0.0285
     15 H3         73.6101   73.2514   99.1525 H           1 A3M       0.0522
     16 H4         72.6578   72.5967   97.8005 H           1 A3M       0.0522
     17 H5         76.4707   71.2023   98.2977 H           1 A3M       0.0522
     18 H6         75.3189   70.3039   97.2785 H           1 A3M       0.0522
     19 H7         74.7101   69.4419   99.4269 H           1 A3M       0.0285
     20 H8         75.1984   70.9492  100.2419 H           1 A3M       0.0285
     21 H9         76.7957   72.1173   96.0376 H           1 A3M       0.1101
     22 H10        78.4845   73.9311   96.1017 H           1 A3M       0.0376
     23 H11        78.2431   75.9682   97.4273 H           1 A3M       0.0236
     24 H12        76.5724   75.5732   97.8332 H           1 A3M       0.0236
     25 H13        77.0169   75.9506   96.1543 H           1 A3M       0.0236
     26 H14        75.6660   73.0006   94.2297 H           1 A3M       0.2015
     27 H15        77.1906   73.6550   94.2877 H           1 A3M       0.2015
     28 H16        75.8825   74.5668   94.7682 H           1 A3M       0.2015
     29 H17        78.4998   72.2687   97.9200 H           1 A3M       0.0236
     30 H18        77.4340   73.2972   98.8960 H           1 A3M       0.0236
     31 H19        79.0659   73.8442   98.4703 H           1 A3M       0.0236
@<TRIPOS>BOND
     1     1     2   1
     2     1     5   1
     3     2     3   1
     4     3     4   1
     5     3     6  am
     6     4     5   1
     7     6     7   1
     8     6    10   2
     9     7     8   1
    10     7    11   1
    11     8     9   1
    12     8    12   1
    13     1    13   1
    14     1    14   1
    15     2    15   1
    16     2    16   1
    17     4    17   1
    18     4    18   1
    19     5    19   1
    20     5    20   1
    21     7    21   1
    22     8    22   1
    23     9    23   1
    24     9    24   1
    25     9    25   1
    26    11    26   1
    27    11    27   1
    28    11    28   1
    29    12    29   1
    30    12    30   1
    31    12    31   1
@<TRIPOS>SUBSTRUCTURE
     1  A3M      1

