@<TRIPOS>MOLECULE
1n1m_ligand_010
    31    31
SMALL
GAST_HUCK
****
This file was generated by PARSER (from files_GN.cpp)

@<TRIPOS>ATOM
      1 C1         76.1831   69.9704  100.4263 C.3         1 A3M      -0.0307
      2 C2         75.3678   70.4870   99.2257 C.3         1 A3M       0.0341
      3 N3         76.2187   71.4216   98.5389 N.am        1 A3M      -0.2686
      4 C4         77.4545   71.6399   99.2431 C.3         1 A3M       0.0341
      5 C5         77.2088   71.0836  100.6563 C.3         1 A3M      -0.0307
      6 C14        75.8565   72.0386   97.3977 C.2         1 A3M       0.2272
      7 C15        76.6808   72.9951   96.6457 C.3         1 A3M       0.0674
      8 C16        76.3376   74.4916   96.9597 C.3         1 A3M       0.0139
      9 C17        76.2763   74.7801   98.4892 C.3         1 A3M      -0.0553
     10 O18        74.7279   71.8399   96.9528 O.2         1 A3M      -0.3907
     11 N19        76.5143   72.7206   95.2033 N.4         1 A3M       0.2381
     12 C26        77.3486   75.4655   96.2871 C.3         1 A3M      -0.0553
     13 H1         76.7010   69.0391  100.1693 H           1 A3M       0.0285
     14 H2         75.5570   69.8098  101.3082 H           1 A3M       0.0285
     15 H3         74.4607   70.9951   99.5652 H           1 A3M       0.0522
     16 H4         75.0917   69.6475   98.5792 H           1 A3M       0.0522
     17 H5         77.7154   72.7018   99.3172 H           1 A3M       0.0522
     18 H6         78.2630   71.0913   98.7500 H           1 A3M       0.0522
     19 H7         78.1293   70.7163  101.1186 H           1 A3M       0.0285
     20 H8         76.7675   71.8671  101.2837 H           1 A3M       0.0285
     21 H9         77.7403   72.8315   96.8525 H           1 A3M       0.1101
     22 H10        75.3475   74.7140   96.5439 H           1 A3M       0.0376
     23 H11        75.9597   75.8092   98.6743 H           1 A3M       0.0236
     24 H12        77.2568   74.6232   98.9483 H           1 A3M       0.0236
     25 H13        75.5558   74.1200   98.9786 H           1 A3M       0.0236
     26 H14        76.5945   71.7182   95.0268 H           1 A3M       0.2015
     27 H15        77.2424   73.2064   94.6713 H           1 A3M       0.2015
     28 H16        75.5936   73.0457   94.8931 H           1 A3M       0.2015
     29 H17        77.3174   75.3682   95.2008 H           1 A3M       0.0236
     30 H18        78.3646   75.2495   96.6259 H           1 A3M       0.0236
     31 H19        77.1107   76.5020   96.5325 H           1 A3M       0.0236
@<TRIPOS>BOND
     1     1     2   1
     2     1     5   1
     3     2     3   1
     4     3     4   1
     5     3     6  am
     6     4     5   1
     7     6     7   1
     8     6    10   2
     9     7     8   1
    10     7    11   1
    11     8     9   1
    12     8    12   1
    13     1    13   1
    14     1    14   1
    15     2    15   1
    16     2    16   1
    17     4    17   1
    18     4    18   1
    19     5    19   1
    20     5    20   1
    21     7    21   1
    22     8    22   1
    23     9    23   1
    24     9    24   1
    25     9    25   1
    26    11    26   1
    27    11    27   1
    28    11    28   1
    29    12    29   1
    30    12    30   1
    31    12    31   1
@<TRIPOS>SUBSTRUCTURE
     1  A3M      1

