@<TRIPOS>MOLECULE
1n1m_ligand_009
    31    31
SMALL
GAST_HUCK
****
This file was generated by PARSER (from files_GN.cpp)

@<TRIPOS>ATOM
      1 C1         84.1279   65.8204  104.3291 C.3         1 A3M      -0.0307
      2 C2         83.9810   64.9910  103.0391 C.3         1 A3M       0.0341
      3 N3         83.8967   65.9336  101.9489 N.am        1 A3M      -0.2686
      4 C4         84.0391   67.2811  102.4381 C.3         1 A3M       0.0341
      5 C5         83.6340   67.2078  103.9150 C.3         1 A3M      -0.0307
      6 C14        83.7263   65.5388  100.6683 C.2         1 A3M       0.2272
      7 C15        83.3964   66.3664   99.4963 C.3         1 A3M       0.0674
      8 C16        84.6365   66.8150   98.6475 C.3         1 A3M       0.0139
      9 C17        84.2174   67.6533   97.4057 C.3         1 A3M      -0.0553
     10 O18        83.7858   64.3318  100.4363 O.2         1 A3M      -0.3907
     11 N19        82.4308   67.4338   99.7926 N.4         1 A3M       0.2381
     12 C26        85.7545   67.5491   99.4408 C.3         1 A3M      -0.0553
     13 H1         85.1770   65.8744  104.6325 H           1 A3M       0.0285
     14 H2         83.5286   65.4193  105.1478 H           1 A3M       0.0285
     15 H3         83.0629   64.3946  103.0826 H           1 A3M       0.0522
     16 H4         84.8402   64.3217  102.9241 H           1 A3M       0.0522
     17 H5         83.4013   68.0330  101.9738 H           1 A3M       0.0522
     18 H6         85.0920   67.5847  102.3578 H           1 A3M       0.0522
     19 H7         84.0873   68.0142  104.4973 H           1 A3M       0.0285
     20 H8         82.5423   67.2651  103.9956 H           1 A3M       0.0285
     21 H9         82.8166   65.7333   98.8182 H           1 A3M       0.1101
     22 H10        85.0928   65.8951   98.2617 H           1 A3M       0.0376
     23 H11        85.0931   67.8822   96.7911 H           1 A3M       0.0236
     24 H12        83.7528   68.5932   97.7173 H           1 A3M       0.0236
     25 H13        83.5053   67.0965   96.7927 H           1 A3M       0.0236
     26 H14        81.8085   67.1100  100.5316 H           1 A3M       0.2015
     27 H15        81.8782   67.6532   98.9639 H           1 A3M       0.2015
     28 H16        82.9126   68.2709  100.1059 H           1 A3M       0.2015
     29 H17        86.1266   66.9239  100.2562 H           1 A3M       0.0236
     30 H18        85.3812   68.4906   99.8500 H           1 A3M       0.0236
     31 H19        86.6051   67.7628   98.7857 H           1 A3M       0.0236
@<TRIPOS>BOND
     1     1     2   1
     2     1     5   1
     3     2     3   1
     4     3     4   1
     5     3     6  am
     6     4     5   1
     7     6     7   1
     8     6    10   2
     9     7     8   1
    10     7    11   1
    11     8     9   1
    12     8    12   1
    13     1    13   1
    14     1    14   1
    15     2    15   1
    16     2    16   1
    17     4    17   1
    18     4    18   1
    19     5    19   1
    20     5    20   1
    21     7    21   1
    22     8    22   1
    23     9    23   1
    24     9    24   1
    25     9    25   1
    26    11    26   1
    27    11    27   1
    28    11    28   1
    29    12    29   1
    30    12    30   1
    31    12    31   1
@<TRIPOS>SUBSTRUCTURE
     1  A3M      1

