@<TRIPOS>MOLECULE
1n2v_ligand_007
    27    28
SMALL
GAST_HUCK
****
This file was generated by PARSER (from files_GN.cpp)

@<TRIPOS>ATOM
      1 N1         12.1744   17.3681   15.6898 N.pl3       1 BDI      -0.2398
      2 C1         12.5777   16.2271   15.1007 C.2         1 BDI       0.1238
      3 C6         13.8827   15.5861   15.3283 C.3         1 BDI       0.0274
      4 C7         15.0746   16.4445   14.8236 C.3         1 BDI      -0.0366
      5 C8         15.3151   16.3292   13.2912 C.3         1 BDI      -0.0535
      6 C9         16.3468   17.3528   12.7557 C.3         1 BDI      -0.0651
      7 N2         11.6130   15.7672   14.2792 N.2         1 BDI      -0.3056
      8 C2         10.6013   16.6459   14.3473 C.2         1 BDI       0.1055
      9 C4          9.3710   16.6880   13.7142 C.2         1 BDI       0.2188
     10 N5          8.5512   17.6963   14.0099 N.am        1 BDI      -0.1851
     11 N4          8.8828   18.6625   14.8668 N.am        1 BDI      -0.1821
     12 C5         10.0567   18.6821   15.5032 C.2         1 BDI       0.2476
     13 O1         10.3224   19.5791   16.2880 O.2         1 BDI      -0.3849
     14 C3         10.9477   17.6545   15.2423 C.2         1 BDI       0.1656
     15 O3          9.0403   15.8175   12.9255 O.2         1 BDI      -0.3913
     16 H1         12.6905   17.8927   16.3228 H           1 BDI       0.2418
     17 H2         13.9024   14.6092   14.8448 H           1 BDI       0.0512
     18 H3         13.9912   15.4239   16.3997 H           1 BDI       0.0512
     19 H4         15.9782   16.1091   15.3390 H           1 BDI       0.0294
     20 H5         14.9185   17.4953   15.0955 H           1 BDI       0.0294
     21 H6         14.3736   16.4913   12.7540 H           1 BDI       0.0264
     22 H7         15.6705   15.3189   13.0564 H           1 BDI       0.0264
     23 H8         16.5304   17.1683   11.6933 H           1 BDI       0.0230
     24 H9         17.2970   17.2714   13.2915 H           1 BDI       0.0230
     25 H10        15.9645   18.3719   12.8675 H           1 BDI       0.0230
     26 H11         7.6742   17.7293   13.5967 H           1 BDI       0.2151
     27 H12         8.2238   19.3502   15.0628 H           1 BDI       0.2153
@<TRIPOS>BOND
     1     1     2   1
     2     1    14   1
     3     2     3   1
     4     2     7   2
     5     3     4   1
     6     4     5   1
     7     5     6   1
     8     7     8   1
     9     8     9   1
    10     8    14   2
    11     9    10  am
    12     9    15   2
    13    10    11   1
    14    11    12  am
    15    12    13   2
    16    12    14   1
    17     1    16   1
    18     3    17   1
    19     3    18   1
    20     4    19   1
    21     4    20   1
    22     5    21   1
    23     5    22   1
    24     6    23   1
    25     6    24   1
    26     6    25   1
    27    10    26   1
    28    11    27   1
@<TRIPOS>SUBSTRUCTURE
     1  BDI      2

