@<TRIPOS>MOLECULE
1n2v_ligand_004
    27    28
SMALL
GAST_HUCK
****
This file was generated by PARSER (from files_GN.cpp)

@<TRIPOS>ATOM
      1 N1         15.4307   16.9430   22.7287 N.pl3       1 BDI      -0.2398
      2 C1         16.3691   17.8033   22.2964 C.2         1 BDI       0.1238
      3 C6         17.3090   17.5378   21.1867 C.3         1 BDI       0.0274
      4 C7         16.6287   16.9592   19.9168 C.3         1 BDI      -0.0366
      5 C8         15.4796   17.8354   19.3461 C.3         1 BDI      -0.0535
      6 C9         14.7408   17.1608   18.1717 C.3         1 BDI      -0.0651
      7 N2         16.2867   18.9577   22.9920 N.2         1 BDI      -0.3056
      8 C2         15.2738   18.8185   23.8607 C.2         1 BDI       0.1055
      9 C4         14.7367   19.6689   24.8162 C.2         1 BDI       0.2188
     10 N5         13.7071   19.2247   25.5352 N.am        1 BDI      -0.1851
     11 N4         13.1717   18.0210   25.3446 N.am        1 BDI      -0.1821
     12 C5         13.6360   17.1518   24.4376 C.2         1 BDI       0.2476
     13 O1         13.1034   16.0714   24.2688 O.2         1 BDI      -0.3849
     14 C3         14.7251   17.5513   23.6862 C.2         1 BDI       0.1656
     15 O3         15.1708   20.7963   24.9982 O.2         1 BDI      -0.3913
     16 H1         15.2623   16.0550   22.3769 H           1 BDI       0.2418
     17 H2         18.0553   16.8229   21.5423 H           1 BDI       0.0512
     18 H3         17.8346   18.4613   20.9317 H           1 BDI       0.0512
     19 H4         16.2350   15.9654   20.1521 H           1 BDI       0.0294
     20 H5         17.3910   16.8327   19.1417 H           1 BDI       0.0294
     21 H6         15.8875   18.7912   19.0068 H           1 BDI       0.0264
     22 H7         14.7478   18.0365   20.1319 H           1 BDI       0.0264
     23 H8         13.9223   17.7983   17.8299 H           1 BDI       0.0230
     24 H9         14.3204   16.2003   18.4820 H           1 BDI       0.0230
     25 H10        15.4248   16.9897   17.3363 H           1 BDI       0.0230
     26 H11        13.3223   19.8026   26.2145 H           1 BDI       0.2151
     27 H12        12.4098   17.7625   25.8826 H           1 BDI       0.2153
@<TRIPOS>BOND
     1     1     2   1
     2     1    14   1
     3     2     3   1
     4     2     7   2
     5     3     4   1
     6     4     5   1
     7     5     6   1
     8     7     8   1
     9     8     9   1
    10     8    14   2
    11     9    10  am
    12     9    15   2
    13    10    11   1
    14    11    12  am
    15    12    13   2
    16    12    14   1
    17     1    16   1
    18     3    17   1
    19     3    18   1
    20     4    19   1
    21     4    20   1
    22     5    21   1
    23     5    22   1
    24     6    23   1
    25     6    24   1
    26     6    25   1
    27    10    26   1
    28    11    27   1
@<TRIPOS>SUBSTRUCTURE
     1  BDI      2

