@<TRIPOS>MOLECULE
1n2v_ligand_006
    27    28
SMALL
GAST_HUCK
****
This file was generated by PARSER (from files_GN.cpp)

@<TRIPOS>ATOM
      1 N1         12.0171   16.8766   16.2090 N.pl3       1 BDI      -0.2398
      2 C1         12.1143   15.5635   15.9281 C.2         1 BDI       0.1238
      3 C6         13.0692   14.6285   16.5558 C.3         1 BDI       0.0274
      4 C7         13.0618   14.7243   18.1059 C.3         1 BDI      -0.0366
      5 C8         13.8255   13.5768   18.8345 C.3         1 BDI      -0.0535
      6 C9         15.2399   13.9467   19.3347 C.3         1 BDI      -0.0651
      7 N2         11.2020   15.2288   14.9906 N.2         1 BDI      -0.3056
      8 C2         10.5264   16.3484   14.6891 C.2         1 BDI       0.1055
      9 C4          9.4892   16.5953   13.8057 C.2         1 BDI       0.2188
     10 N5          9.0165   17.8397   13.7314 N.am        1 BDI      -0.1851
     11 N4          9.5037   18.8357   14.4736 N.am        1 BDI      -0.1821
     12 C5         10.4954   18.6589   15.3485 C.2         1 BDI       0.2476
     13 O1         10.9109   19.5935   16.0146 O.2         1 BDI      -0.3849
     14 C3         11.0348   17.3897   15.4615 C.2         1 BDI       0.1656
     15 O3          9.0118   15.7038   13.1206 O.2         1 BDI      -0.3913
     16 H1         12.5530   17.3608   16.8561 H           1 BDI       0.2418
     17 H2         14.0720   14.8458   16.1810 H           1 BDI       0.0512
     18 H3         12.8020   13.6128   16.2541 H           1 BDI       0.0512
     19 H4         12.0219   14.7067   18.4448 H           1 BDI       0.0294
     20 H5         13.4780   15.6913   18.4022 H           1 BDI       0.0294
     21 H6         13.9113   12.7042   18.1842 H           1 BDI       0.0264
     22 H7         13.2424   13.2697   19.7072 H           1 BDI       0.0264
     23 H8         15.6720   13.0949   19.8641 H           1 BDI       0.0230
     24 H9         15.1893   14.7931   20.0238 H           1 BDI       0.0230
     25 H10        15.8909   14.2010   18.4970 H           1 BDI       0.0230
     26 H11         8.2874   18.0306   13.1195 H           1 BDI       0.2151
     27 H12         9.1191   19.7212   14.3744 H           1 BDI       0.2153
@<TRIPOS>BOND
     1     1     2   1
     2     1    14   1
     3     2     3   1
     4     2     7   2
     5     3     4   1
     6     4     5   1
     7     5     6   1
     8     7     8   1
     9     8     9   1
    10     8    14   2
    11     9    10  am
    12     9    15   2
    13    10    11   1
    14    11    12  am
    15    12    13   2
    16    12    14   1
    17     1    16   1
    18     3    17   1
    19     3    18   1
    20     4    19   1
    21     4    20   1
    22     5    21   1
    23     5    22   1
    24     6    23   1
    25     6    24   1
    26     6    25   1
    27    10    26   1
    28    11    27   1
@<TRIPOS>SUBSTRUCTURE
     1  BDI      2

