@<TRIPOS>MOLECULE
1n2v_ligand_005
    27    28
SMALL
GAST_HUCK
****
This file was generated by PARSER (from files_GN.cpp)

@<TRIPOS>ATOM
      1 N1         16.0906   19.0189   23.0138 N.pl3       1 BDI      -0.2398
      2 C1         16.0555   17.9440   22.1979 C.2         1 BDI       0.1238
      3 C6         16.9006   17.7668   21.0071 C.3         1 BDI       0.0274
      4 C7         16.0583   17.7560   19.7036 C.3         1 BDI      -0.0366
      5 C8         16.8826   17.9599   18.4084 C.3         1 BDI      -0.0535
      6 C9         17.7281   16.7276   18.0157 C.3         1 BDI      -0.0651
      7 N2         15.0910   17.0917   22.6104 N.2         1 BDI      -0.3056
      8 C2         14.5124   17.6549   23.6821 C.2         1 BDI       0.1055
      9 C4         13.4638   17.2465   24.4843 C.2         1 BDI       0.2188
     10 N5         13.0831   18.0591   25.4685 N.am        1 BDI      -0.1851
     11 N4         13.6661   19.2343   25.7029 N.am        1 BDI      -0.1821
     12 C5         14.6819   19.6814   24.9674 C.2         1 BDI       0.2476
     13 O1         15.1630   20.7874   25.1746 O.2         1 BDI      -0.3849
     14 C3         15.1319   18.8742   23.9344 C.2         1 BDI       0.1656
     15 O3         12.8957   16.1786   24.2909 O.2         1 BDI      -0.3913
     16 H1         16.6865   19.7811   22.9194 H           1 BDI       0.2418
     17 H2         17.4570   16.8378   21.1120 H           1 BDI       0.0512
     18 H3         17.6146   18.5960   20.9596 H           1 BDI       0.0512
     19 H4         15.3295   18.5600   19.7578 H           1 BDI       0.0294
     20 H5         15.5135   16.8112   19.6339 H           1 BDI       0.0294
     21 H6         17.5327   18.8295   18.5161 H           1 BDI       0.0264
     22 H7         16.1918   18.1548   17.5845 H           1 BDI       0.0264
     23 H8         18.2269   16.9112   17.0646 H           1 BDI       0.0230
     24 H9         17.0785   15.8553   17.9062 H           1 BDI       0.0230
     25 H10        18.4840   16.5198   18.7757 H           1 BDI       0.0230
     26 H11        12.3513   17.7907   26.0380 H           1 BDI       0.2151
     27 H12        13.3310   19.7899   26.4194 H           1 BDI       0.2153
@<TRIPOS>BOND
     1     1     2   1
     2     1    14   1
     3     2     3   1
     4     2     7   2
     5     3     4   1
     6     4     5   1
     7     5     6   1
     8     7     8   1
     9     8     9   1
    10     8    14   2
    11     9    10  am
    12     9    15   2
    13    10    11   1
    14    11    12  am
    15    12    13   2
    16    12    14   1
    17     1    16   1
    18     3    17   1
    19     3    18   1
    20     4    19   1
    21     4    20   1
    22     5    21   1
    23     5    22   1
    24     6    23   1
    25     6    24   1
    26     6    25   1
    27    10    26   1
    28    11    27   1
@<TRIPOS>SUBSTRUCTURE
     1  BDI      2

