@<TRIPOS>MOLECULE
1nvq_ligand_013
    63    70
SMALL
GAST_HUCK
****
This file was generated by PARSER (from files_GN.cpp)

@<TRIPOS>ATOM
      1 O37        -0.3214    0.9105   18.7937 O.3         1 UCN      -0.3582
      2 C9         -1.2202    1.9254   18.3533 C.3         1 UCN       0.1708
      3 N1         -2.0961    2.2872   19.4062 N.am        1 UCN      -0.2534
      4 C8         -1.9607    3.5317   19.7956 C.2         1 UCN       0.1891
      5 O5         -2.6519    3.9926   20.6880 O.2         1 UCN      -0.3964
      6 C7         -1.0078    4.1583   19.0432 C.ar        1 UCN       0.0346
      7 C6         -0.4391    5.4569   19.0566 C.ar        1 UCN      -0.0017
      8 C5         -0.5827    6.5759   19.8812 C.ar        1 UCN      -0.0071
      9 C20         0.2903    7.5531   19.3828 C.ar        1 UCN       0.0681
     10 C1          0.3874    8.8161   20.0068 C.ar        1 UCN      -0.0404
     11 C2         -0.3956    9.0914   21.1420 C.ar        1 UCN      -0.0732
     12 C3         -1.2631    8.1076   21.6552 C.ar        1 UCN      -0.0750
     13 C4         -1.3588    6.8484   21.0290 C.ar        1 UCN      -0.0685
     14 N3          0.9440    7.0682   18.2993 N.pl3       1 UCN      -0.2376
     15 C19         0.5248    5.8022   18.0859 C.ar        1 UCN       0.0952
     16 C18         0.9671    4.8624   17.1201 C.ar        1 UCN       0.0979
     17 N2          1.9035    4.9491   16.1299 N.pl3       1 UCN      -0.2292
     18 C17         2.0355    3.6949   15.5953 C.ar        1 UCN       0.0695
     19 C12         1.1101    2.8313   16.2013 C.ar        1 UCN      -0.0074
     20 C13         0.9868    1.4806   15.8196 C.ar        1 UCN      -0.0696
     21 C14         1.8282    0.9733   14.8156 C.ar        1 UCN      -0.0759
     22 C15         2.7856    1.8085   14.2144 C.ar        1 UCN      -0.0739
     23 C16         2.8906    3.1594   14.5999 C.ar        1 UCN      -0.0408
     24 C11         0.4434    3.5623   17.1715 C.ar        1 UCN       0.0037
     25 C10        -0.5480    3.2111   18.1167 C.ar        1 UCN       0.0127
     26 C21         2.5668    6.1851   15.7004 C.3         1 UCN       0.2020
     27 O4          1.8448    7.3634   16.1320 O.3         1 UCN      -0.3149
     28 C25         1.8915    7.7888   17.5008 C.3         1 UCN       0.1668
     29 C24         3.3315    7.8169   18.0911 C.3         1 UCN       0.0455
     30 C23         4.1938    6.5836   17.7010 C.3         1 UCN       0.0141
     31 N4          3.8845    5.4663   18.6378 N.4         1 UCN       0.2291
     32 C28         4.5746    4.1770   18.4634 C.3         1 UCN      -0.0445
     33 C22         4.0607    6.3327   16.1666 C.3         1 UCN       0.1556
     34 O6          4.8683    5.2081   15.7585 O.3         1 UCN      -0.3686
     35 C27         6.0467    5.4720   14.9689 C.3         1 UCN       0.0373
     36 C26         2.4726    6.3766   14.1466 C.3         1 UCN      -0.0059
     37 H1         -0.8954    0.1498   19.0254 H           1 UCN       0.2154
     38 H2         -1.7841    1.5987   17.4778 H           1 UCN       0.1031
     39 H3         -2.7253    1.6703   19.8124 H           1 UCN       0.1889
     40 H4          1.0200    9.5324   19.6494 H           1 UCN       0.0539
     41 H5         -0.3301   10.0048   21.5987 H           1 UCN       0.0568
     42 H6         -1.8216    8.3070   22.4891 H           1 UCN       0.0516
     43 H7         -1.9815    6.1562   21.4317 H           1 UCN       0.0576
     44 H8          0.3023    0.8668   16.2557 H           1 UCN       0.0566
     45 H9          1.7558   -0.0057   14.5345 H           1 UCN       0.0516
     46 H10         3.4101    1.4322   13.4959 H           1 UCN       0.0561
     47 H11         3.6109    3.7187   14.1536 H           1 UCN       0.0538
     48 H12         1.5488    8.8251   17.4498 H           1 UCN       0.0933
     49 H13         3.2909    7.9154   19.1801 H           1 UCN       0.0372
     50 H14         3.8364    8.7110   17.7121 H           1 UCN       0.0372
     51 H15         5.2357    6.8562   17.8842 H           1 UCN       0.0880
     52 H16         2.8817    5.2888   18.6424 H           1 UCN       0.2014
     53 H17         4.1379    5.8010   19.5702 H           1 UCN       0.2014
     54 H18         4.5434    3.6436   19.4116 H           1 UCN       0.0777
     55 H19         5.6192    4.3165   18.1839 H           1 UCN       0.0777
     56 H20         4.0693    3.5691   17.7113 H           1 UCN       0.0777
     57 H21         4.4347    7.2531   15.6920 H           1 UCN       0.0710
     58 H22         6.5559    4.5217   14.7904 H           1 UCN       0.0524
     59 H23         6.7279    6.1465   15.4940 H           1 UCN       0.0524
     60 H24         5.7796    5.9066   13.9980 H           1 UCN       0.0524
     61 H25         2.6466    7.4179   13.8621 H           1 UCN       0.0284
     62 H26         1.4862    6.0866   13.7811 H           1 UCN       0.0284
     63 H27         3.2180    5.7940   13.6107 H           1 UCN       0.0284
@<TRIPOS>BOND
     1     2     1   1
     2     2     3   1
     3     2    25   1
     4     3     4  am
     5     4     5   2
     6     4     6   1
     7     6     7  ar
     8    25     6  ar
     9     7     8   1
    10     7    15  ar
    11     8     9  ar
    12     8    13  ar
    13     9    10  ar
    14     9    14   1
    15    10    11  ar
    16    11    12  ar
    17    13    12  ar
    18    14    15   1
    19    14    28   1
    20    15    16  ar
    21    16    17   1
    22    16    24  ar
    23    17    18   1
    24    17    26   1
    25    18    19  ar
    26    18    23  ar
    27    19    20  ar
    28    19    24   1
    29    20    21  ar
    30    21    22  ar
    31    23    22  ar
    32    24    25  ar
    33    26    27   1
    34    26    33   1
    35    26    36   1
    36    27    28   1
    37    28    29   1
    38    29    30   1
    39    30    31   1
    40    33    30   1
    41    31    32   1
    42    33    34   1
    43    34    35   1
    44     1    37   1
    45     2    38   1
    46     3    39   1
    47    10    40   1
    48    11    41   1
    49    12    42   1
    50    13    43   1
    51    20    44   1
    52    21    45   1
    53    22    46   1
    54    23    47   1
    55    28    48   1
    56    29    49   1
    57    29    50   1
    58    30    51   1
    59    31    52   1
    60    31    53   1
    61    32    54   1
    62    32    55   1
    63    32    56   1
    64    33    57   1
    65    35    58   1
    66    35    59   1
    67    35    60   1
    68    36    61   1
    69    36    62   1
    70    36    63   1
@<TRIPOS>SUBSTRUCTURE
     1  UCN      2

