@<TRIPOS>MOLECULE
1nvq_ligand_026
    63    70
SMALL
GAST_HUCK
****
This file was generated by PARSER (from files_GN.cpp)

@<TRIPOS>ATOM
      1 O37        13.3097    6.7337   12.5623 O.3         1 UCN      -0.3582
      2 C9         13.0705    6.0325   13.7776 C.3         1 UCN       0.1708
      3 N1         12.1594    6.7600   14.5803 N.am        1 UCN      -0.2534
      4 C8         11.0266    6.1300   14.7850 C.2         1 UCN       0.1891
      5 O5         10.1500    6.6229   15.4732 O.2         1 UCN      -0.3964
      6 C7         11.0509    4.9067   14.1745 C.ar        1 UCN       0.0346
      7 C6         10.1129    3.8545   14.0271 C.ar        1 UCN      -0.0017
      8 C5          8.7745    3.6881   14.3902 C.ar        1 UCN      -0.0071
      9 C20         8.3831    2.4288   13.9156 C.ar        1 UCN       0.0681
     10 C1          7.0644    1.9629   14.1119 C.ar        1 UCN      -0.0404
     11 C2          6.1378    2.7768   14.7881 C.ar        1 UCN      -0.0732
     12 C3          6.5237    4.0477   15.2547 C.ar        1 UCN      -0.0750
     13 C4          7.8397    4.5079   15.0566 C.ar        1 UCN      -0.0685
     14 N3          9.4276    1.8356   13.2899 N.pl3       1 UCN      -0.2376
     15 C19        10.4842    2.6812   13.3388 C.ar        1 UCN       0.0952
     16 C18        11.7740    2.5470   12.7640 C.ar        1 UCN       0.0979
     17 N2         12.3324    1.5485   12.0193 N.pl3       1 UCN      -0.2292
     18 C17        13.5528    2.0069   11.5872 C.ar        1 UCN       0.0695
     19 C12        13.7917    3.2790   12.1308 C.ar        1 UCN      -0.0074
     20 C13        14.9895    3.9827   11.8855 C.ar        1 UCN      -0.0696
     21 C14        15.9702    3.4018   11.0636 C.ar        1 UCN      -0.0759
     22 C15        15.7443    2.1387   10.4889 C.ar        1 UCN      -0.0739
     23 C16        14.5480    1.4440   10.7524 C.ar        1 UCN      -0.0408
     24 C11        12.6632    3.6283   12.8568 C.ar        1 UCN       0.0037
     25 C10        12.3078    4.7990   13.5624 C.ar        1 UCN       0.0127
     26 C21        11.7212    0.2387   11.7733 C.3         1 UCN       0.2020
     27 O4         10.6987   -0.0846   12.7468 O.3         1 UCN      -0.3149
     28 C25         9.4051    0.5308   12.6903 C.3         1 UCN       0.1668
     29 C24         8.7808    0.4796   11.2641 C.3         1 UCN       0.0455
     30 C23         9.7824    0.9097   10.1569 C.3         1 UCN       0.0141
     31 N4          9.8729    2.3969   10.1514 N.4         1 UCN       0.2291
     32 C28        11.0522    3.0347    9.5284 C.3         1 UCN      -0.0445
     33 C22        11.1069    0.0901   10.3342 C.3         1 UCN       0.1556
     34 O6         12.0944    0.3909    9.3238 O.3         1 UCN      -0.3686
     35 C27        11.8146   -0.0446    7.9805 C.3         1 UCN       0.0373
     36 C26        12.7166   -0.9316   12.0806 C.3         1 UCN      -0.0059
     37 H1         14.2776    6.8869   12.5381 H           1 UCN       0.2154
     38 H2         14.0000    5.8429   14.3215 H           1 UCN       0.1031
     39 H3         12.3466    7.6459   14.9318 H           1 UCN       0.1889
     40 H4          6.7709    1.0486   13.7644 H           1 UCN       0.0539
     41 H5          5.1801    2.4506   14.9288 H           1 UCN       0.0568
     42 H6          5.8429    4.6413   15.7324 H           1 UCN       0.0516
     43 H7          8.0842    5.4336   15.3893 H           1 UCN       0.0576
     44 H8         15.1616    4.9022   12.2886 H           1 UCN       0.0566
     45 H9         16.8404    3.9032   10.8685 H           1 UCN       0.0516
     46 H10        16.4531    1.7248    9.8787 H           1 UCN       0.0561
     47 H11        14.4215    0.5463   10.2990 H           1 UCN       0.0538
     48 H12         8.7958   -0.1121   13.3314 H           1 UCN       0.0933
     49 H13         7.8788    1.0990   11.2253 H           1 UCN       0.0372
     50 H14         8.4679   -0.5514   11.0647 H           1 UCN       0.0372
     51 H15         9.3313    0.6236    9.1997 H           1 UCN       0.0880
     52 H16         9.8134    2.7345   11.1125 H           1 UCN       0.2014
     53 H17         9.0438    2.7425    9.6548 H           1 UCN       0.2014
     54 H18        10.8540    4.1048    9.4140 H           1 UCN       0.0777
     55 H19        11.2546    2.6047    8.5392 H           1 UCN       0.0777
     56 H20        11.9222    2.9182   10.1708 H           1 UCN       0.0777
     57 H21        10.8279   -0.9664   10.2354 H           1 UCN       0.0710
     58 H22        12.6694    0.2133    7.3524 H           1 UCN       0.0524
     59 H23        10.9285    0.4554    7.5803 H           1 UCN       0.0524
     60 H24        11.6748   -1.1289    7.9355 H           1 UCN       0.0524
     61 H25        12.1887   -1.8783   12.2358 H           1 UCN       0.0284
     62 H26        13.2879   -0.7155   12.9865 H           1 UCN       0.0284
     63 H27        13.4096   -1.1133   11.2650 H           1 UCN       0.0284
@<TRIPOS>BOND
     1     2     1   1
     2     2     3   1
     3     2    25   1
     4     3     4  am
     5     4     5   2
     6     4     6   1
     7     6     7  ar
     8    25     6  ar
     9     7     8   1
    10     7    15  ar
    11     8     9  ar
    12     8    13  ar
    13     9    10  ar
    14     9    14   1
    15    10    11  ar
    16    11    12  ar
    17    13    12  ar
    18    14    15   1
    19    14    28   1
    20    15    16  ar
    21    16    17   1
    22    16    24  ar
    23    17    18   1
    24    17    26   1
    25    18    19  ar
    26    18    23  ar
    27    19    20  ar
    28    19    24   1
    29    20    21  ar
    30    21    22  ar
    31    23    22  ar
    32    24    25  ar
    33    26    27   1
    34    26    33   1
    35    26    36   1
    36    27    28   1
    37    28    29   1
    38    29    30   1
    39    30    31   1
    40    33    30   1
    41    31    32   1
    42    33    34   1
    43    34    35   1
    44     1    37   1
    45     2    38   1
    46     3    39   1
    47    10    40   1
    48    11    41   1
    49    12    42   1
    50    13    43   1
    51    20    44   1
    52    21    45   1
    53    22    46   1
    54    23    47   1
    55    28    48   1
    56    29    49   1
    57    29    50   1
    58    30    51   1
    59    31    52   1
    60    31    53   1
    61    32    54   1
    62    32    55   1
    63    32    56   1
    64    33    57   1
    65    35    58   1
    66    35    59   1
    67    35    60   1
    68    36    61   1
    69    36    62   1
    70    36    63   1
@<TRIPOS>SUBSTRUCTURE
     1  UCN      2

