@<TRIPOS>MOLECULE
1nvq_ligand_002
    63    70
SMALL
GAST_HUCK
****
This file was generated by PARSER (from files_GN.cpp)

@<TRIPOS>ATOM
      1 O37         8.7916   10.3439   16.5738 O.3         1 UCN      -0.3582
      2 C9          8.5954    9.6610   17.8044 C.3         1 UCN       0.1708
      3 N1          7.5915   10.3012   18.5732 N.am        1 UCN      -0.2534
      4 C8          6.5421    9.5453   18.7983 C.2         1 UCN       0.1891
      5 O5          5.6033    9.9512   19.4636 O.2         1 UCN      -0.3964
      6 C7          6.7228    8.3144   18.2316 C.ar        1 UCN       0.0346
      7 C6          5.9323    7.1412   18.1446 C.ar        1 UCN      -0.0017
      8 C5          4.6381    6.8045   18.5461 C.ar        1 UCN      -0.0071
      9 C20         4.4063    5.4951   18.0990 C.ar        1 UCN       0.0681
     10 C1          3.1561    4.8725   18.3056 C.ar        1 UCN      -0.0404
     11 C2          2.1351    5.5744   18.9756 C.ar        1 UCN      -0.0732
     12 C3          2.3706    6.8825   19.4411 C.ar        1 UCN      -0.0750
     13 C4          3.6148    7.5010   19.2267 C.ar        1 UCN      -0.0685
     14 N3          5.5180    5.0285   17.4752 N.pl3       1 UCN      -0.2376
     15 C19         6.4507    6.0052   17.4861 C.ar        1 UCN       0.0952
     16 C18         7.7330    6.0188   16.8855 C.ar        1 UCN       0.0979
     17 N2          8.4157    5.0681   16.1797 N.pl3       1 UCN      -0.2292
     18 C17         9.5237    5.6828   15.6654 C.ar        1 UCN       0.0695
     19 C12         9.5992    7.0013   16.1440 C.ar        1 UCN      -0.0074
     20 C13        10.6637    7.8571   15.8030 C.ar        1 UCN      -0.0696
     21 C14        11.6558    7.4003   14.9143 C.ar        1 UCN      -0.0759
     22 C15        11.5808    6.0964   14.3922 C.ar        1 UCN      -0.0739
     23 C16        10.5418    5.2328   14.7848 C.ar        1 UCN      -0.0408
     24 C11         8.4660    7.2165   16.9176 C.ar        1 UCN       0.0037
     25 C10         7.9777    8.3463   17.6092 C.ar        1 UCN       0.0127
     26 C21         8.0394    3.6523   16.0635 C.3         1 UCN       0.2020
     27 O4          7.0310    3.2724   17.0288 O.3         1 UCN      -0.3149
     28 C25         5.6721    3.7238   16.8962 C.3         1 UCN       0.1668
     29 C24         5.1015    3.5989   15.4498 C.3         1 UCN       0.0455
     30 C23         6.1396    3.9222   14.3374 C.3         1 UCN       0.0141
     31 N4          6.3037    5.3968   14.1562 N.4         1 UCN       0.2291
     32 C28         5.8842    5.9785   12.8681 C.3         1 UCN      -0.0445
     33 C22         7.4864    3.2102   14.6598 C.3         1 UCN       0.1556
     34 O6          8.3988    3.4374   13.5640 O.3         1 UCN      -0.3686
     35 C27         9.1812    2.3164   13.1066 C.3         1 UCN       0.0373
     36 C26         9.2269    2.7498   16.5312 C.3         1 UCN      -0.0059
     37 H1          9.6920   10.7301   16.6421 H           1 UCN       0.2154
     38 H2          9.5247    9.5803   18.3699 H           1 UCN       0.1031
     39 H3          7.6742   11.2093   18.9118 H           1 UCN       0.1889
     40 H4          2.9770    3.9260   17.9636 H           1 UCN       0.0539
     41 H5          1.2273    5.1355   19.1205 H           1 UCN       0.0568
     42 H6          1.6280    7.3854   19.9305 H           1 UCN       0.0516
     43 H7          3.7519    8.4484   19.5645 H           1 UCN       0.0576
     44 H8         10.7373    8.8011   16.1726 H           1 UCN       0.0566
     45 H9         12.4256    8.0160   14.6440 H           1 UCN       0.0516
     46 H10        12.2857    5.7748   13.7235 H           1 UCN       0.0561
     47 H11        10.5385    4.2986   14.3944 H           1 UCN       0.0538
     48 H12         5.1181    3.0206   17.5275 H           1 UCN       0.0933
     49 H13         4.2200    4.2346   15.3381 H           1 UCN       0.0372
     50 H14         4.7704    2.5664   15.3129 H           1 UCN       0.0372
     51 H15         5.7638    3.4877   13.4033 H           1 UCN       0.0880
     52 H16         7.2908    5.6333   14.2735 H           1 UCN       0.2014
     53 H17         5.7768    5.8739   14.8897 H           1 UCN       0.2014
     54 H18         6.0065    7.0629   12.9126 H           1 UCN       0.0777
     55 H19         4.8359    5.7514   12.6598 H           1 UCN       0.0777
     56 H20         6.5135    5.5876   12.0657 H           1 UCN       0.0777
     57 H21         7.2572    2.1395   14.7375 H           1 UCN       0.0710
     58 H22         9.7264    1.8639   13.9370 H           1 UCN       0.0524
     59 H23         9.9060    2.6588   12.3653 H           1 UCN       0.0524
     60 H24         8.5378    1.5695   12.6354 H           1 UCN       0.0524
     61 H25         8.8794    1.7380   16.7645 H           1 UCN       0.0284
     62 H26         9.6802    3.1679   17.4381 H           1 UCN       0.0284
     63 H27        10.0002    2.6541   15.7718 H           1 UCN       0.0284
@<TRIPOS>BOND
     1     2     1   1
     2     2     3   1
     3     2    25   1
     4     3     4  am
     5     4     5   2
     6     4     6   1
     7     6     7  ar
     8    25     6  ar
     9     7     8   1
    10     7    15  ar
    11     8     9  ar
    12     8    13  ar
    13     9    10  ar
    14     9    14   1
    15    10    11  ar
    16    11    12  ar
    17    13    12  ar
    18    14    15   1
    19    14    28   1
    20    15    16  ar
    21    16    17   1
    22    16    24  ar
    23    17    18   1
    24    17    26   1
    25    18    19  ar
    26    18    23  ar
    27    19    20  ar
    28    19    24   1
    29    20    21  ar
    30    21    22  ar
    31    23    22  ar
    32    24    25  ar
    33    26    27   1
    34    26    33   1
    35    26    36   1
    36    27    28   1
    37    28    29   1
    38    29    30   1
    39    30    31   1
    40    33    30   1
    41    31    32   1
    42    33    34   1
    43    34    35   1
    44     1    37   1
    45     2    38   1
    46     3    39   1
    47    10    40   1
    48    11    41   1
    49    12    42   1
    50    13    43   1
    51    20    44   1
    52    21    45   1
    53    22    46   1
    54    23    47   1
    55    28    48   1
    56    29    49   1
    57    29    50   1
    58    30    51   1
    59    31    52   1
    60    31    53   1
    61    32    54   1
    62    32    55   1
    63    32    56   1
    64    33    57   1
    65    35    58   1
    66    35    59   1
    67    35    60   1
    68    36    61   1
    69    36    62   1
    70    36    63   1
@<TRIPOS>SUBSTRUCTURE
     1  UCN      2

