@<TRIPOS>MOLECULE
1nvq_ligand_005
    63    70
SMALL
GAST_HUCK
****
This file was generated by PARSER (from files_GN.cpp)

@<TRIPOS>ATOM
      1 O37         3.7304   10.1279   19.1598 O.3         1 UCN      -0.3582
      2 C9          3.1417    9.0369   19.8637 C.3         1 UCN       0.1708
      3 N1          1.7856    9.3545   20.1255 N.am        1 UCN      -0.2534
      4 C8          0.9358    8.5662   19.5208 C.2         1 UCN       0.1891
      5 O5         -0.2699    8.6815   19.6955 O.2         1 UCN      -0.3964
      6 C7          1.6042    7.6062   18.8200 C.ar        1 UCN       0.0346
      7 C6          1.1970    6.5304   17.9943 C.ar        1 UCN      -0.0017
      8 C5         -0.0360    6.1049   17.4923 C.ar        1 UCN      -0.0071
      9 C20         0.2185    4.9540   16.7336 C.ar        1 UCN       0.0681
     10 C1         -0.8438    4.2586   16.1152 C.ar        1 UCN      -0.0404
     11 C2         -2.1568    4.7549   16.2245 C.ar        1 UCN      -0.0732
     12 C3         -2.4062    5.9355   16.9508 C.ar        1 UCN      -0.0750
     13 C4         -1.3496    6.6136   17.5851 C.ar        1 UCN      -0.0685
     14 N3          1.5507    4.7009   16.7244 N.pl3       1 UCN      -0.2376
     15 C19         2.1618    5.6388   17.4837 C.ar        1 UCN       0.0952
     16 C18         3.5442    5.8327   17.7354 C.ar        1 UCN       0.0979
     17 N2          4.6481    5.1498   17.3122 N.pl3       1 UCN      -0.2292
     18 C17         5.7406    5.8436   17.7585 C.ar        1 UCN       0.0695
     19 C12         5.3166    6.9284   18.5455 C.ar        1 UCN      -0.0074
     20 C13         6.2320    7.7733   19.2037 C.ar        1 UCN      -0.0696
     21 C14         7.6094    7.5731   19.0143 C.ar        1 UCN      -0.0759
     22 C15         8.0593    6.5317   18.1826 C.ar        1 UCN      -0.0739
     23 C16         7.1330    5.6736   17.5601 C.ar        1 UCN      -0.0408
     24 C11         3.9305    6.9435   18.5067 C.ar        1 UCN       0.0037
     25 C10         2.9711    7.8267   19.0452 C.ar        1 UCN       0.0127
     26 C21         4.6292    3.8861   16.5641 C.3         1 UCN       0.2020
     27 O4          3.3715    3.1875   16.7213 O.3         1 UCN      -0.3149
     28 C25         2.1960    3.6235   16.0326 C.3         1 UCN       0.1668
     29 C24         2.4605    3.8903   14.5220 C.3         1 UCN       0.0455
     30 C23         3.7549    4.7126   14.2437 C.3         1 UCN       0.0141
     31 N4          3.4666    6.1629   14.4366 N.4         1 UCN       0.2291
     32 C28         4.5356    7.1558   14.2246 C.3         1 UCN      -0.0445
     33 C22         4.9400    4.0541   15.0304 C.3         1 UCN       0.1556
     34 O6          6.1981    4.7322   14.8293 O.3         1 UCN      -0.3686
     35 C27         6.9215    4.4929   13.6100 C.3         1 UCN       0.0373
     36 C26         5.5665    2.8052   17.2028 C.3         1 UCN      -0.0059
     37 H1          4.6284    9.8361   18.9037 H           1 UCN       0.2154
     38 H2          3.6708    8.8251   20.7942 H           1 UCN       0.1031
     39 H3          1.5151   10.0961   20.6912 H           1 UCN       0.1889
     40 H4         -0.6743    3.4054   15.5802 H           1 UCN       0.0539
     41 H5         -2.9292    4.2630   15.7684 H           1 UCN       0.0568
     42 H6         -3.3590    6.2999   17.0145 H           1 UCN       0.0516
     43 H7         -1.5544    7.4732   18.0836 H           1 UCN       0.0576
     44 H8          5.9192    8.5256   19.8156 H           1 UCN       0.0566
     45 H9          8.2848    8.1877   19.4732 H           1 UCN       0.0516
     46 H10         9.0617    6.3966   18.0350 H           1 UCN       0.0561
     47 H11         7.5017    4.9425   16.9603 H           1 UCN       0.0538
     48 H12         1.5369    2.7549   16.1015 H           1 UCN       0.0933
     49 H13         1.5970    4.3876   14.0774 H           1 UCN       0.0372
     50 H14         2.5576    2.9196   14.0246 H           1 UCN       0.0372
     51 H15         3.9738    4.5977   13.1780 H           1 UCN       0.0880
     52 H16         3.1038    6.3030   15.3751 H           1 UCN       0.2014
     53 H17         2.7207    6.4021   13.7732 H           1 UCN       0.2014
     54 H18         4.0874    8.1457   14.2174 H           1 UCN       0.0777
     55 H19         5.0342    7.0014   13.2707 H           1 UCN       0.0777
     56 H20         5.2613    7.1216   15.0331 H           1 UCN       0.0777
     57 H21         5.0425    3.0367   14.6307 H           1 UCN       0.0710
     58 H22         7.8575    5.0470   13.6577 H           1 UCN       0.0524
     59 H23         6.3697    4.8351   12.7370 H           1 UCN       0.0524
     60 H24         7.1507    3.4337   13.4980 H           1 UCN       0.0524
     61 H25         5.3086    1.7991   16.8588 H           1 UCN       0.0284
     62 H26         5.4720    2.8157   18.2911 H           1 UCN       0.0284
     63 H27         6.6093    2.9474   16.9358 H           1 UCN       0.0284
@<TRIPOS>BOND
     1     2     1   1
     2     2     3   1
     3     2    25   1
     4     3     4  am
     5     4     5   2
     6     4     6   1
     7     6     7  ar
     8    25     6  ar
     9     7     8   1
    10     7    15  ar
    11     8     9  ar
    12     8    13  ar
    13     9    10  ar
    14     9    14   1
    15    10    11  ar
    16    11    12  ar
    17    13    12  ar
    18    14    15   1
    19    14    28   1
    20    15    16  ar
    21    16    17   1
    22    16    24  ar
    23    17    18   1
    24    17    26   1
    25    18    19  ar
    26    18    23  ar
    27    19    20  ar
    28    19    24   1
    29    20    21  ar
    30    21    22  ar
    31    23    22  ar
    32    24    25  ar
    33    26    27   1
    34    26    33   1
    35    26    36   1
    36    27    28   1
    37    28    29   1
    38    29    30   1
    39    30    31   1
    40    33    30   1
    41    31    32   1
    42    33    34   1
    43    34    35   1
    44     1    37   1
    45     2    38   1
    46     3    39   1
    47    10    40   1
    48    11    41   1
    49    12    42   1
    50    13    43   1
    51    20    44   1
    52    21    45   1
    53    22    46   1
    54    23    47   1
    55    28    48   1
    56    29    49   1
    57    29    50   1
    58    30    51   1
    59    31    52   1
    60    31    53   1
    61    32    54   1
    62    32    55   1
    63    32    56   1
    64    33    57   1
    65    35    58   1
    66    35    59   1
    67    35    60   1
    68    36    61   1
    69    36    62   1
    70    36    63   1
@<TRIPOS>SUBSTRUCTURE
     1  UCN      2

