@<TRIPOS>MOLECULE
1nvq_ligand_018
    63    70
SMALL
GAST_HUCK
****
This file was generated by PARSER (from files_GN.cpp)

@<TRIPOS>ATOM
      1 O37         6.8128    5.4094   13.0213 O.3         1 UCN      -0.3582
      2 C9          7.0168    4.5964   14.1822 C.3         1 UCN       0.1708
      3 N1          8.3901    4.2611   14.3153 N.am        1 UCN      -0.2534
      4 C8          8.9399    4.6827   15.4325 C.2         1 UCN       0.1891
      5 O5         10.0883    4.3887   15.7212 O.2         1 UCN      -0.3964
      6 C7          8.0138    5.3440   16.1814 C.ar        1 UCN       0.0346
      7 C6          8.0439    6.0011   17.4385 C.ar        1 UCN      -0.0017
      8 C5          9.0545    6.3428   18.3478 C.ar        1 UCN      -0.0071
      9 C20         8.4206    7.0116   19.4106 C.ar        1 UCN       0.0681
     10 C1          9.1747    7.4846   20.5049 C.ar        1 UCN      -0.0404
     11 C2         10.5643    7.2749   20.5410 C.ar        1 UCN      -0.0732
     12 C3         11.2045    6.6143   19.4712 C.ar        1 UCN      -0.0750
     13 C4         10.4564    6.1552   18.3699 C.ar        1 UCN      -0.0685
     14 N3          7.0860    7.0794   19.1914 N.pl3       1 UCN      -0.2376
     15 C19         6.8402    6.4904   17.9952 C.ar        1 UCN       0.0952
     16 C18         5.6108    6.3775   17.3010 C.ar        1 UCN       0.0979
     17 N2          4.3449    6.7967   17.6098 N.pl3       1 UCN      -0.2292
     18 C17         3.5635    6.5164   16.5361 C.ar        1 UCN       0.0695
     19 C12         4.3116    5.8135   15.5764 C.ar        1 UCN      -0.0074
     20 C13         3.7198    5.2950   14.4085 C.ar        1 UCN      -0.0696
     21 C14         2.3495    5.5184   14.1803 C.ar        1 UCN      -0.0759
     22 C15         1.6002    6.2685   15.1001 C.ar        1 UCN      -0.0739
     23 C16         2.2007    6.7821   16.2595 C.ar        1 UCN      -0.0408
     24 C11         5.6163    5.7779   16.0347 C.ar        1 UCN       0.0037
     25 C10         6.8092    5.2754   15.4665 C.ar        1 UCN       0.0127
     26 C21         3.9227    7.3622   18.8959 C.3         1 UCN       0.2020
     27 O4          4.8227    6.9631   19.9517 O.3         1 UCN      -0.3149
     28 C25         6.0986    7.5924   20.1055 C.3         1 UCN       0.1668
     29 C24         5.9588    9.1482   20.1004 C.3         1 UCN       0.0455
     30 C23         5.0963    9.6791   18.9392 C.3         1 UCN       0.0141
     31 N4          5.8628    9.5914   17.6610 N.4         1 UCN       0.2291
     32 C28         6.7101   10.7669   17.3399 C.3         1 UCN      -0.0445
     33 C22         3.7413    8.9184   18.8836 C.3         1 UCN       0.1556
     34 O6          2.9769    9.3375   17.7271 O.3         1 UCN      -0.3686
     35 C27         1.8210   10.1794   17.9492 C.3         1 UCN       0.0373
     36 C26         2.5985    6.7079   19.4267 C.3         1 UCN      -0.0059
     37 H1          7.2115    4.9055   12.2626 H           1 UCN       0.2154
     38 H2          6.4190    3.6858   14.1335 H           1 UCN       0.1031
     39 H3          8.8639    3.7367   13.6457 H           1 UCN       0.1889
     40 H4          8.7201    7.9812   21.2670 H           1 UCN       0.0539
     41 H5         11.1050    7.6233   21.3375 H           1 UCN       0.0568
     42 H6         12.2162    6.4853   19.5010 H           1 UCN       0.0516
     43 H7         10.9326    5.6982   17.6034 H           1 UCN       0.0576
     44 H8          4.2535    4.7434   13.7388 H           1 UCN       0.0566
     45 H9          1.8927    5.1515   13.3414 H           1 UCN       0.0516
     46 H10         0.6040    6.4407   14.9273 H           1 UCN       0.0561
     47 H11         1.6311    7.3670   16.8602 H           1 UCN       0.0538
     48 H12         6.3956    7.2756   21.1046 H           1 UCN       0.0933
     49 H13         6.9520    9.6145   20.0741 H           1 UCN       0.0372
     50 H14         5.4951    9.4560   21.0506 H           1 UCN       0.0372
     51 H15         4.8595   10.7153   19.1502 H           1 UCN       0.0880
     52 H16         5.2290    9.4316   16.8741 H           1 UCN       0.2014
     53 H17         6.4905    8.7824   17.7028 H           1 UCN       0.2014
     54 H18         7.1672   10.6095   16.3654 H           1 UCN       0.0777
     55 H19         7.4981   10.8937   18.0799 H           1 UCN       0.0777
     56 H20         6.0934   11.6651   17.3013 H           1 UCN       0.0777
     57 H21         3.2098    9.1793   19.8034 H           1 UCN       0.0710
     58 H22         1.3425   10.4076   17.0008 H           1 UCN       0.0524
     59 H23         2.1333   11.1115   18.4176 H           1 UCN       0.0524
     60 H24         1.0998    9.6693   18.5902 H           1 UCN       0.0524
     61 H25         2.5036    6.8353   20.5144 H           1 UCN       0.0284
     62 H26         2.5815    5.6278   19.2084 H           1 UCN       0.0284
     63 H27         1.7062    7.1719   19.0120 H           1 UCN       0.0284
@<TRIPOS>BOND
     1     2     1   1
     2     2     3   1
     3     2    25   1
     4     3     4  am
     5     4     5   2
     6     4     6   1
     7     6     7  ar
     8    25     6  ar
     9     7     8   1
    10     7    15  ar
    11     8     9  ar
    12     8    13  ar
    13     9    10  ar
    14     9    14   1
    15    10    11  ar
    16    11    12  ar
    17    13    12  ar
    18    14    15   1
    19    14    28   1
    20    15    16  ar
    21    16    17   1
    22    16    24  ar
    23    17    18   1
    24    17    26   1
    25    18    19  ar
    26    18    23  ar
    27    19    20  ar
    28    19    24   1
    29    20    21  ar
    30    21    22  ar
    31    23    22  ar
    32    24    25  ar
    33    26    27   1
    34    26    33   1
    35    26    36   1
    36    27    28   1
    37    28    29   1
    38    29    30   1
    39    30    31   1
    40    33    30   1
    41    31    32   1
    42    33    34   1
    43    34    35   1
    44     1    37   1
    45     2    38   1
    46     3    39   1
    47    10    40   1
    48    11    41   1
    49    12    42   1
    50    13    43   1
    51    20    44   1
    52    21    45   1
    53    22    46   1
    54    23    47   1
    55    28    48   1
    56    29    49   1
    57    29    50   1
    58    30    51   1
    59    31    52   1
    60    31    53   1
    61    32    54   1
    62    32    55   1
    63    32    56   1
    64    33    57   1
    65    35    58   1
    66    35    59   1
    67    35    60   1
    68    36    61   1
    69    36    62   1
    70    36    63   1
@<TRIPOS>SUBSTRUCTURE
     1  UCN      2

