@<TRIPOS>MOLECULE
1nvq_ligand_020
    63    70
SMALL
GAST_HUCK
****
This file was generated by PARSER (from files_GN.cpp)

@<TRIPOS>ATOM
      1 O37         6.1061    7.9621   12.5436 O.3         1 UCN      -0.3582
      2 C9          5.3914    7.4624   13.6737 C.3         1 UCN       0.1708
      3 N1          3.9955    7.5342   13.4419 N.am        1 UCN      -0.2534
      4 C8          3.4171    6.3598   13.3669 C.2         1 UCN       0.1891
      5 O5          2.2011    6.2525   13.3074 O.2         1 UCN      -0.3964
      6 C7          4.3481    5.3730   13.4991 C.ar        1 UCN       0.0346
      7 C6          4.3141    3.9610   13.3842 C.ar        1 UCN      -0.0017
      8 C5          3.3416    3.0467   12.9763 C.ar        1 UCN      -0.0071
      9 C20         3.9337    1.7783   13.0423 C.ar        1 UCN       0.0681
     10 C1          3.1995    0.6256   12.6807 C.ar        1 UCN      -0.0404
     11 C2          1.8669    0.7621   12.2469 C.ar        1 UCN      -0.0732
     12 C3          1.2797    2.0383   12.1587 C.ar        1 UCN      -0.0750
     13 C4          2.0166    3.1868   12.5140 C.ar        1 UCN      -0.0685
     14 N3          5.2146    1.9012   13.4631 N.pl3       1 UCN      -0.2376
     15 C19         5.4754    3.2143   13.6558 C.ar        1 UCN       0.0952
     16 C18         6.6945    3.8553   13.9978 C.ar        1 UCN       0.0979
     17 N2          7.9406    3.3595   14.2447 N.pl3       1 UCN      -0.2292
     18 C17         8.7747    4.4355   14.4029 C.ar        1 UCN       0.0695
     19 C12         8.0295    5.6220   14.3409 C.ar        1 UCN      -0.0074
     20 C13         8.6169    6.8832   14.5635 C.ar        1 UCN      -0.0696
     21 C14         9.9976    6.9664   14.8203 C.ar        1 UCN      -0.0759
     22 C15        10.7775    5.7953   14.8342 C.ar        1 UCN      -0.0739
     23 C16        10.1734    4.5436   14.6174 C.ar        1 UCN      -0.0408
     24 C11         6.7252    5.2540   14.0421 C.ar        1 UCN       0.0037
     25 C10         5.5624    6.0114   13.7841 C.ar        1 UCN       0.0127
     26 C21         8.2632    1.9372   14.3861 C.3         1 UCN       0.2020
     27 O4          7.0924    1.1417   14.6927 O.3         1 UCN      -0.3149
     28 C25         6.1267    0.8178   13.6846 C.3         1 UCN       0.1668
     29 C24         6.7904    0.2523   12.3987 C.3         1 UCN       0.0455
     30 C23         8.0166    1.0777   11.9344 C.3         1 UCN       0.0141
     31 N4          7.5788    2.3466   11.2921 N.4         1 UCN       0.2291
     32 C28         7.7229    2.4674    9.8265 C.3         1 UCN      -0.0445
     33 C22         8.9930    1.3222   13.1319 C.3         1 UCN       0.1556
     34 O6         10.1076    2.1633   12.7710 O.3         1 UCN      -0.3686
     35 C27        11.0433    1.6950   11.7859 C.3         1 UCN       0.0373
     36 C26         9.0785    1.6936   15.7020 C.3         1 UCN      -0.0059
     37 H1          5.6439    8.7865   12.2785 H           1 UCN       0.2154
     38 H2          5.6442    7.9853   14.5998 H           1 UCN       0.1031
     39 H3          3.5134    8.3734   13.3704 H           1 UCN       0.1889
     40 H4          3.6240   -0.3020   12.7235 H           1 UCN       0.0539
     41 H5          1.3298   -0.0687   11.9868 H           1 UCN       0.0568
     42 H6          0.3166    2.1314   11.8264 H           1 UCN       0.0516
     43 H7          1.5837    4.0993   12.4064 H           1 UCN       0.0576
     44 H8          8.0623    7.7358   14.5486 H           1 UCN       0.0566
     45 H9         10.4404    7.8753   14.9811 H           1 UCN       0.0516
     46 H10        11.7829    5.8581   15.0153 H           1 UCN       0.0561
     47 H11        10.7755    3.7279   14.6084 H           1 UCN       0.0538
     48 H12         5.5531    0.0029   14.1360 H           1 UCN       0.0933
     49 H13         6.0589    0.1969   11.5873 H           1 UCN       0.0372
     50 H14         7.1218   -0.7712   12.6038 H           1 UCN       0.0372
     51 H15         8.5487    0.4553   11.2040 H           1 UCN       0.0880
     52 H16         8.0974    3.1131   11.7150 H           1 UCN       0.2014
     53 H17         6.5912    2.4883   11.5097 H           1 UCN       0.2014
     54 H18         7.2898    3.4181    9.5091 H           1 UCN       0.0777
     55 H19         7.1949    1.6578    9.3220 H           1 UCN       0.0777
     56 H20         8.7739    2.4545    9.5346 H           1 UCN       0.0777
     57 H21         9.3923    0.3427   13.4292 H           1 UCN       0.0710
     58 H22        11.8854    2.3850   11.7749 H           1 UCN       0.0524
     59 H23        10.5987    1.6824   10.7898 H           1 UCN       0.0524
     60 H24        11.4129    0.6985   12.0352 H           1 UCN       0.0524
     61 H25         9.0000    0.6542   16.0282 H           1 UCN       0.0284
     62 H26         8.6988    2.3175   16.5151 H           1 UCN       0.0284
     63 H27        10.1388    1.8815   15.5782 H           1 UCN       0.0284
@<TRIPOS>BOND
     1     2     1   1
     2     2     3   1
     3     2    25   1
     4     3     4  am
     5     4     5   2
     6     4     6   1
     7     6     7  ar
     8    25     6  ar
     9     7     8   1
    10     7    15  ar
    11     8     9  ar
    12     8    13  ar
    13     9    10  ar
    14     9    14   1
    15    10    11  ar
    16    11    12  ar
    17    13    12  ar
    18    14    15   1
    19    14    28   1
    20    15    16  ar
    21    16    17   1
    22    16    24  ar
    23    17    18   1
    24    17    26   1
    25    18    19  ar
    26    18    23  ar
    27    19    20  ar
    28    19    24   1
    29    20    21  ar
    30    21    22  ar
    31    23    22  ar
    32    24    25  ar
    33    26    27   1
    34    26    33   1
    35    26    36   1
    36    27    28   1
    37    28    29   1
    38    29    30   1
    39    30    31   1
    40    33    30   1
    41    31    32   1
    42    33    34   1
    43    34    35   1
    44     1    37   1
    45     2    38   1
    46     3    39   1
    47    10    40   1
    48    11    41   1
    49    12    42   1
    50    13    43   1
    51    20    44   1
    52    21    45   1
    53    22    46   1
    54    23    47   1
    55    28    48   1
    56    29    49   1
    57    29    50   1
    58    30    51   1
    59    31    52   1
    60    31    53   1
    61    32    54   1
    62    32    55   1
    63    32    56   1
    64    33    57   1
    65    35    58   1
    66    35    59   1
    67    35    60   1
    68    36    61   1
    69    36    62   1
    70    36    63   1
@<TRIPOS>SUBSTRUCTURE
     1  UCN      2

