@<TRIPOS>MOLECULE
1nvq_ligand_022
    63    70
SMALL
GAST_HUCK
****
This file was generated by PARSER (from files_GN.cpp)

@<TRIPOS>ATOM
      1 O37         5.0616    9.1051   20.7011 O.3         1 UCN      -0.3582
      2 C9          5.2209    9.8195   19.4744 C.3         1 UCN       0.1708
      3 N1          6.1009   10.9031   19.6894 N.am        1 UCN      -0.2534
      4 C8          7.1983   10.8373   18.9731 C.2         1 UCN       0.1891
      5 O5          8.0465   11.7095   19.0279 O.2         1 UCN      -0.3964
      6 C7          7.1862    9.7275   18.1855 C.ar        1 UCN       0.0346
      7 C6          8.1050    9.1602   17.2719 C.ar        1 UCN      -0.0017
      8 C5          9.3912    9.4931   16.8405 C.ar        1 UCN      -0.0071
      9 C20         9.7793    8.4994   15.9320 C.ar        1 UCN       0.0681
     10 C1         11.0369    8.5514   15.2903 C.ar        1 UCN      -0.0404
     11 C2         11.8788    9.6584   15.5157 C.ar        1 UCN      -0.0732
     12 C3         11.4830   10.6728   16.4049 C.ar        1 UCN      -0.0750
     13 C4         10.2646   10.5705   17.1015 C.ar        1 UCN      -0.0685
     14 N3          8.7630    7.6206   15.7719 N.pl3       1 UCN      -0.2376
     15 C19         7.7393    7.9976   16.5681 C.ar        1 UCN       0.0952
     16 C18         6.4861    7.3682   16.7903 C.ar        1 UCN       0.0979
     17 N2          5.9462    6.2246   16.2807 N.pl3       1 UCN      -0.2292
     18 C17         4.7926    5.9787   16.9748 C.ar        1 UCN       0.0695
     19 C12         4.5566    7.0329   17.8730 C.ar        1 UCN      -0.0074
     20 C13         3.4210    7.0649   18.7111 C.ar        1 UCN      -0.0696
     21 C14         2.5122    5.9963   18.6700 C.ar        1 UCN      -0.0759
     22 C15         2.7341    4.9152   17.8015 C.ar        1 UCN      -0.0739
     23 C16         3.8643    4.9052   16.9564 C.ar        1 UCN      -0.0408
     24 C11         5.6297    7.8992   17.7596 C.ar        1 UCN       0.0037
     25 C10         5.9633    9.0853   18.4489 C.ar        1 UCN       0.0127
     26 C21         6.5310    5.4504   15.1788 C.3         1 UCN       0.2020
     27 O4          7.4206    6.2511   14.3635 O.3         1 UCN      -0.3149
     28 C25         8.7504    6.5514   14.8188 C.3         1 UCN       0.1668
     29 C24         9.5227    5.2871   15.2696 C.3         1 UCN       0.0455
     30 C23         8.6924    4.4528   16.2849 C.3         1 UCN       0.0141
     31 N4          8.5910    5.1094   17.6147 N.4         1 UCN       0.2291
     32 C28         9.7713    5.1072   18.4960 C.3         1 UCN      -0.0445
     33 C22         7.2931    4.1610   15.6566 C.3         1 UCN       0.1556
     34 O6          6.4511    3.4521   16.5880 O.3         1 UCN      -0.3686
     35 C27         6.5190    2.0262   16.5682 C.3         1 UCN       0.0373
     36 C26         5.4542    5.0888   14.0974 C.3         1 UCN      -0.0059
     37 H1          5.3897    8.1960   20.5334 H           1 UCN       0.2154
     38 H2          4.2624   10.1788   19.0929 H           1 UCN       0.1031
     39 H3          5.9235   11.6257   20.3037 H           1 UCN       0.1889
     40 H4         11.3313    7.8215   14.6431 H           1 UCN       0.0539
     41 H5         12.7711    9.7258   15.0248 H           1 UCN       0.0568
     42 H6         12.0850   11.4891   16.5455 H           1 UCN       0.0516
     43 H7         10.0259   11.2974   17.7630 H           1 UCN       0.0576
     44 H8          3.2510    7.8430   19.3478 H           1 UCN       0.0566
     45 H9          1.6882    6.0020   19.2793 H           1 UCN       0.0516
     46 H10         2.0767    4.1351   17.7785 H           1 UCN       0.0561
     47 H11         3.9995    4.0913   16.3685 H           1 UCN       0.0538
     48 H12         9.2423    6.9161   13.9164 H           1 UCN       0.0933
     49 H13        10.4906    5.5662   15.6864 H           1 UCN       0.0372
     50 H14         9.7205    4.6717   14.3907 H           1 UCN       0.0372
     51 H15         9.1962    3.4926   16.4306 H           1 UCN       0.0880
     52 H16         7.8213    4.6699   18.1219 H           1 UCN       0.2014
     53 H17         8.3269    6.0780   17.4817 H           1 UCN       0.2014
     54 H18         9.5330    5.6573   19.4041 H           1 UCN       0.0777
     55 H19        10.6222    5.5895   18.0164 H           1 UCN       0.0777
     56 H20        10.0341    4.0857   18.7669 H           1 UCN       0.0777
     57 H21         7.4759    3.5599   14.7587 H           1 UCN       0.0710
     58 H22         5.7625    1.6366   17.2514 H           1 UCN       0.0524
     59 H23         7.5052    1.7010   16.9019 H           1 UCN       0.0524
     60 H24         6.3086    1.6377   15.5673 H           1 UCN       0.0524
     61 H25         5.9226    4.8316   13.1435 H           1 UCN       0.0284
     62 H26         4.7862    5.9356   13.9261 H           1 UCN       0.0284
     63 H27         4.8605    4.2268   14.3783 H           1 UCN       0.0284
@<TRIPOS>BOND
     1     2     1   1
     2     2     3   1
     3     2    25   1
     4     3     4  am
     5     4     5   2
     6     4     6   1
     7     6     7  ar
     8    25     6  ar
     9     7     8   1
    10     7    15  ar
    11     8     9  ar
    12     8    13  ar
    13     9    10  ar
    14     9    14   1
    15    10    11  ar
    16    11    12  ar
    17    13    12  ar
    18    14    15   1
    19    14    28   1
    20    15    16  ar
    21    16    17   1
    22    16    24  ar
    23    17    18   1
    24    17    26   1
    25    18    19  ar
    26    18    23  ar
    27    19    20  ar
    28    19    24   1
    29    20    21  ar
    30    21    22  ar
    31    23    22  ar
    32    24    25  ar
    33    26    27   1
    34    26    33   1
    35    26    36   1
    36    27    28   1
    37    28    29   1
    38    29    30   1
    39    30    31   1
    40    33    30   1
    41    31    32   1
    42    33    34   1
    43    34    35   1
    44     1    37   1
    45     2    38   1
    46     3    39   1
    47    10    40   1
    48    11    41   1
    49    12    42   1
    50    13    43   1
    51    20    44   1
    52    21    45   1
    53    22    46   1
    54    23    47   1
    55    28    48   1
    56    29    49   1
    57    29    50   1
    58    30    51   1
    59    31    52   1
    60    31    53   1
    61    32    54   1
    62    32    55   1
    63    32    56   1
    64    33    57   1
    65    35    58   1
    66    35    59   1
    67    35    60   1
    68    36    61   1
    69    36    62   1
    70    36    63   1
@<TRIPOS>SUBSTRUCTURE
     1  UCN      2

