@<TRIPOS>MOLECULE
1nvq_ligand_004
    63    70
SMALL
GAST_HUCK
****
This file was generated by PARSER (from files_GN.cpp)

@<TRIPOS>ATOM
      1 O37        10.2291    5.2425   15.0734 O.3         1 UCN      -0.3582
      2 C9          9.7760    4.8122   16.3544 C.3         1 UCN       0.1708
      3 N1         10.1454    5.7523   17.3456 N.am        1 UCN      -0.2534
      4 C8          9.1198    6.3189   17.9386 C.2         1 UCN       0.1891
      5 O5          9.2746    7.0951   18.8637 O.2         1 UCN      -0.3964
      6 C7          7.9539    5.7925   17.4557 C.ar        1 UCN       0.0346
      7 C6          6.5838    5.9883   17.7581 C.ar        1 UCN      -0.0017
      8 C5          5.8860    6.8946   18.5594 C.ar        1 UCN      -0.0071
      9 C20         4.5279    6.5702   18.4412 C.ar        1 UCN       0.0681
     10 C1          3.5487    7.3170   19.1357 C.ar        1 UCN      -0.0404
     11 C2          3.9478    8.3933   19.9513 C.ar        1 UCN      -0.0732
     12 C3          5.3119    8.7253   20.0643 C.ar        1 UCN      -0.0750
     13 C4          6.2836    7.9840   19.3626 C.ar        1 UCN      -0.0685
     14 N3          4.3868    5.5100   17.6097 N.pl3       1 UCN      -0.2376
     15 C19         5.6162    5.1463   17.1749 C.ar        1 UCN       0.0952
     16 C18         5.9837    4.1374   16.2506 C.ar        1 UCN       0.0979
     17 N2          5.2417    3.2292   15.5508 N.pl3       1 UCN      -0.2292
     18 C17         6.0992    2.5711   14.7084 C.ar        1 UCN       0.0695
     19 C12         7.4060    3.0315   14.9240 C.ar        1 UCN      -0.0074
     20 C13         8.5124    2.5078   14.2241 C.ar        1 UCN      -0.0696
     21 C14         8.2997    1.4983   13.2675 C.ar        1 UCN      -0.0759
     22 C15         6.9969    1.0331   13.0179 C.ar        1 UCN      -0.0739
     23 C16         5.9038    1.5681   13.7282 C.ar        1 UCN      -0.0408
     24 C11         7.3354    4.0254   15.8898 C.ar        1 UCN       0.0037
     25 C10         8.3154    4.8388   16.4950 C.ar        1 UCN       0.0127
     26 C21         3.8082    2.9845   15.7445 C.3         1 UCN       0.2020
     27 O4          3.3439    3.4590   17.0320 O.3         1 UCN      -0.3149
     28 C25         3.1523    4.8552   17.2869 C.3         1 UCN       0.1668
     29 C24         2.3251    5.5495   16.1698 C.3         1 UCN       0.0455
     30 C23         2.8018    5.1764   14.7322 C.3         1 UCN       0.0141
     31 N4          4.0296    5.9526   14.3950 N.4         1 UCN       0.2291
     32 C28         4.7598    5.6283   13.1533 C.3         1 UCN      -0.0445
     33 C22         2.9000    3.6146   14.6207 C.3         1 UCN       0.1556
     34 O6          3.3259    3.1733   13.3105 O.3         1 UCN      -0.3686
     35 C27         2.3775    3.2826   12.2266 C.3         1 UCN       0.0373
     36 C26         3.5048    1.4608   15.9433 C.3         1 UCN      -0.0059
     37 H1          9.7569    6.0839   14.8932 H           1 UCN       0.2154
     38 H2         10.1715    3.8267   16.6025 H           1 UCN       0.1031
     39 H3         11.0681    5.9378   17.5824 H           1 UCN       0.1889
     40 H4          2.5550    7.0954   19.0471 H           1 UCN       0.0539
     41 H5          3.2468    8.9396   20.4580 H           1 UCN       0.0568
     42 H6          5.5985    9.5108   20.6538 H           1 UCN       0.0516
     43 H7          7.2554    8.2632   19.4378 H           1 UCN       0.0576
     44 H8          9.4599    2.8404   14.3911 H           1 UCN       0.0566
     45 H9          9.0900    1.1089   12.7493 H           1 UCN       0.0516
     46 H10         6.8416    0.3048   12.3173 H           1 UCN       0.0561
     47 H11         4.9782    1.2261   13.4942 H           1 UCN       0.0538
     48 H12         2.5433    4.8560   18.1961 H           1 UCN       0.0933
     49 H13         2.3452    6.6329   16.3104 H           1 UCN       0.0372
     50 H14         1.2826    5.2332   16.2812 H           1 UCN       0.0372
     51 H15         2.0179    5.5185   14.0487 H           1 UCN       0.0880
     52 H16         4.6897    5.8673   15.1610 H           1 UCN       0.2014
     53 H17         3.7612    6.9373   14.3246 H           1 UCN       0.2014
     54 H18         5.5100    6.4012   12.9847 H           1 UCN       0.0777
     55 H19         4.0854    5.6087   12.2966 H           1 UCN       0.0777
     56 H20         5.2761    4.6714   13.2405 H           1 UCN       0.0777
     57 H21         1.8848    3.2296   14.7902 H           1 UCN       0.0710
     58 H22         2.8377    2.8856   11.3181 H           1 UCN       0.0524
     59 H23         2.0974    4.3209   12.0282 H           1 UCN       0.0524
     60 H24         1.4757    2.6997   12.4401 H           1 UCN       0.0524
     61 H25         2.5415    1.2984   16.4369 H           1 UCN       0.0284
     62 H26         4.2762    1.0051   16.5672 H           1 UCN       0.0284
     63 H27         3.4499    0.9151   15.0070 H           1 UCN       0.0284
@<TRIPOS>BOND
     1     2     1   1
     2     2     3   1
     3     2    25   1
     4     3     4  am
     5     4     5   2
     6     4     6   1
     7     6     7  ar
     8    25     6  ar
     9     7     8   1
    10     7    15  ar
    11     8     9  ar
    12     8    13  ar
    13     9    10  ar
    14     9    14   1
    15    10    11  ar
    16    11    12  ar
    17    13    12  ar
    18    14    15   1
    19    14    28   1
    20    15    16  ar
    21    16    17   1
    22    16    24  ar
    23    17    18   1
    24    17    26   1
    25    18    19  ar
    26    18    23  ar
    27    19    20  ar
    28    19    24   1
    29    20    21  ar
    30    21    22  ar
    31    23    22  ar
    32    24    25  ar
    33    26    27   1
    34    26    33   1
    35    26    36   1
    36    27    28   1
    37    28    29   1
    38    29    30   1
    39    30    31   1
    40    33    30   1
    41    31    32   1
    42    33    34   1
    43    34    35   1
    44     1    37   1
    45     2    38   1
    46     3    39   1
    47    10    40   1
    48    11    41   1
    49    12    42   1
    50    13    43   1
    51    20    44   1
    52    21    45   1
    53    22    46   1
    54    23    47   1
    55    28    48   1
    56    29    49   1
    57    29    50   1
    58    30    51   1
    59    31    52   1
    60    31    53   1
    61    32    54   1
    62    32    55   1
    63    32    56   1
    64    33    57   1
    65    35    58   1
    66    35    59   1
    67    35    60   1
    68    36    61   1
    69    36    62   1
    70    36    63   1
@<TRIPOS>SUBSTRUCTURE
     1  UCN      2

