@<TRIPOS>MOLECULE
1nvq_ligand_023
    63    70
SMALL
GAST_HUCK
****
This file was generated by PARSER (from files_GN.cpp)

@<TRIPOS>ATOM
      1 O37         9.1252    7.0404   10.0444 O.3         1 UCN      -0.3582
      2 C9          8.3220    6.3607    9.1013 C.3         1 UCN       0.1708
      3 N1          9.1231    5.8577    8.0543 N.am        1 UCN      -0.2534
      4 C8          9.0876    4.5478    7.9550 C.2         1 UCN       0.1891
      5 O5          9.6719    3.9734    7.0604 O.2         1 UCN      -0.3964
      6 C7          8.2515    4.0252    8.9047 C.ar        1 UCN       0.0346
      7 C6          7.8381    2.7107    9.2403 C.ar        1 UCN      -0.0017
      8 C5          8.1932    1.4353    8.7998 C.ar        1 UCN      -0.0071
      9 C20         7.4518    0.5253    9.5649 C.ar        1 UCN       0.0681
     10 C1          7.6149   -0.8656    9.3866 C.ar        1 UCN      -0.0404
     11 C2          8.5298   -1.3392    8.4268 C.ar        1 UCN      -0.0732
     12 C3          9.2750   -0.4271    7.6554 C.ar        1 UCN      -0.0750
     13 C4          9.1152    0.9595    7.8417 C.ar        1 UCN      -0.0685
     14 N3          6.6635    1.2050   10.4305 N.pl3       1 UCN      -0.2376
     15 C19         6.8842    2.5267   10.2621 C.ar        1 UCN       0.0952
     16 C18         6.3684    3.6232   10.9980 C.ar        1 UCN       0.0979
     17 N2          5.4949    3.6876   12.0483 N.pl3       1 UCN      -0.2292
     18 C17         5.4366    4.9988   12.4418 C.ar        1 UCN       0.0695
     19 C12         6.2319    5.7776   11.5877 C.ar        1 UCN      -0.0074
     20 C13         6.2951    7.1802   11.7050 C.ar        1 UCN      -0.0696
     21 C14         5.5599    7.8201   12.7146 C.ar        1 UCN      -0.0759
     22 C15         4.7960    7.0602   13.6167 C.ar        1 UCN      -0.0739
     23 C16         4.7367    5.6595   13.4854 C.ar        1 UCN      -0.0408
     24 C11         6.8351    4.9069   10.6873 C.ar        1 UCN       0.0037
     25 C10         7.7547    5.1127    9.6330 C.ar        1 UCN       0.0127
     26 C21         4.7583    2.5520   12.6111 C.3         1 UCN       0.2020
     27 O4          4.6477    1.4637   11.6637 O.3         1 UCN      -0.3149
     28 C25         5.7621    0.6176   11.3740 C.3         1 UCN       0.1668
     29 C24         6.4569    0.1040   12.6640 C.3         1 UCN       0.0455
     30 C23         6.6972    1.2247   13.7121 C.3         1 UCN       0.0141
     31 N4          7.8430    2.1108   13.3557 N.4         1 UCN       0.2291
     32 C28         9.1216    1.8652   14.0549 C.3         1 UCN      -0.0445
     33 C22         5.3862    2.0358   13.9577 C.3         1 UCN       0.1556
     34 O6          5.5967    3.1445   14.8659 O.3         1 UCN      -0.3686
     35 C27         5.9512    2.8717   16.2343 C.3         1 UCN       0.0373
     36 C26         3.2320    2.8634   12.7789 C.3         1 UCN      -0.0059
     37 H1          8.9445    7.9915    9.8840 H           1 UCN       0.2154
     38 H2          7.5534    7.0273    8.7122 H           1 UCN       0.1031
     39 H3          9.6385    6.4240    7.4571 H           1 UCN       0.1889
     40 H4          7.0930   -1.5349    9.9546 H           1 UCN       0.0539
     41 H5          8.6636   -2.3452    8.2997 H           1 UCN       0.0568
     42 H6          9.9487   -0.7751    6.9671 H           1 UCN       0.0516
     43 H7          9.6837    1.5934    7.2916 H           1 UCN       0.0576
     44 H8          6.8294    7.7405   11.0462 H           1 UCN       0.0566
     45 H9          5.5704    8.8389   12.7858 H           1 UCN       0.0516
     46 H10         4.2724    7.5271   14.3595 H           1 UCN       0.0561
     47 H11         4.1850    5.1519   14.1649 H           1 UCN       0.0538
     48 H12         5.2976   -0.2428   10.8857 H           1 UCN       0.0933
     49 H13         7.4024   -0.3856   12.4150 H           1 UCN       0.0372
     50 H14         5.8040   -0.6529   13.1132 H           1 UCN       0.0372
     51 H15         6.9225    0.7278   14.6553 H           1 UCN       0.0880
     52 H16         7.5827    3.0789   13.5485 H           1 UCN       0.2014
     53 H17         8.0247    2.0265   12.3564 H           1 UCN       0.2014
     54 H18         9.8725    2.5546   13.6675 H           1 UCN       0.0777
     55 H19         9.4602    0.8380   13.8971 H           1 UCN       0.0777
     56 H20         9.0019    2.0479   15.1220 H           1 UCN       0.0777
     57 H21         4.6631    1.3477   14.4127 H           1 UCN       0.0710
     58 H22         5.2692    2.1455   16.6845 H           1 UCN       0.0524
     59 H23         5.8886    3.8070   16.7926 H           1 UCN       0.0524
     60 H24         6.9761    2.5088   16.3165 H           1 UCN       0.0524
     61 H25         2.6392    1.9448   12.8414 H           1 UCN       0.0284
     62 H26         2.8687    3.4404   11.9237 H           1 UCN       0.0284
     63 H27         3.0093    3.4122   13.6918 H           1 UCN       0.0284
@<TRIPOS>BOND
     1     2     1   1
     2     2     3   1
     3     2    25   1
     4     3     4  am
     5     4     5   2
     6     4     6   1
     7     6     7  ar
     8    25     6  ar
     9     7     8   1
    10     7    15  ar
    11     8     9  ar
    12     8    13  ar
    13     9    10  ar
    14     9    14   1
    15    10    11  ar
    16    11    12  ar
    17    13    12  ar
    18    14    15   1
    19    14    28   1
    20    15    16  ar
    21    16    17   1
    22    16    24  ar
    23    17    18   1
    24    17    26   1
    25    18    19  ar
    26    18    23  ar
    27    19    20  ar
    28    19    24   1
    29    20    21  ar
    30    21    22  ar
    31    23    22  ar
    32    24    25  ar
    33    26    27   1
    34    26    33   1
    35    26    36   1
    36    27    28   1
    37    28    29   1
    38    29    30   1
    39    30    31   1
    40    33    30   1
    41    31    32   1
    42    33    34   1
    43    34    35   1
    44     1    37   1
    45     2    38   1
    46     3    39   1
    47    10    40   1
    48    11    41   1
    49    12    42   1
    50    13    43   1
    51    20    44   1
    52    21    45   1
    53    22    46   1
    54    23    47   1
    55    28    48   1
    56    29    49   1
    57    29    50   1
    58    30    51   1
    59    31    52   1
    60    31    53   1
    61    32    54   1
    62    32    55   1
    63    32    56   1
    64    33    57   1
    65    35    58   1
    66    35    59   1
    67    35    60   1
    68    36    61   1
    69    36    62   1
    70    36    63   1
@<TRIPOS>SUBSTRUCTURE
     1  UCN      2

