@<TRIPOS>MOLECULE
1nvq_ligand_007
    63    70
SMALL
GAST_HUCK
****
This file was generated by PARSER (from files_GN.cpp)

@<TRIPOS>ATOM
      1 O37         1.6659    6.1702   17.3965 O.3         1 UCN      -0.3582
      2 C9          2.2794    5.0392   18.0147 C.3         1 UCN       0.1708
      3 N1          1.8387    3.8464   17.3903 N.am        1 UCN      -0.2534
      4 C8          2.8026    3.1866   16.7870 C.2         1 UCN       0.1891
      5 O5          2.6137    2.0906   16.2833 O.2         1 UCN      -0.3964
      6 C7          3.9865    3.8462   16.9510 C.ar        1 UCN       0.0346
      7 C6          5.2984    3.6371   16.4613 C.ar        1 UCN      -0.0017
      8 C5          5.8419    2.8106   15.4763 C.ar        1 UCN      -0.0071
      9 C20         7.2148    3.0925   15.4234 C.ar        1 UCN       0.0681
     10 C1          8.0454    2.4176   14.5003 C.ar        1 UCN      -0.0404
     11 C2          7.4709    1.5111   13.5871 C.ar        1 UCN      -0.0732
     12 C3          6.0823    1.2659   13.6140 C.ar        1 UCN      -0.0750
     13 C4          5.2646    1.9000   14.5673 C.ar        1 UCN      -0.0685
     14 N3          7.5056    4.0875   16.2978 N.pl3       1 UCN      -0.2376
     15 C19         6.3552    4.4610   16.9034 C.ar        1 UCN       0.0952
     16 C18         6.0982    5.5698   17.7496 C.ar        1 UCN       0.0979
     17 N2          6.9057    6.5811   18.1766 N.pl3       1 UCN      -0.2292
     18 C17         6.0991    7.5236   18.7526 C.ar        1 UCN       0.0695
     19 C12         4.7788    7.0517   18.7763 C.ar        1 UCN      -0.0074
     20 C13         3.7214    7.8190   19.3053 C.ar        1 UCN      -0.0696
     21 C14         3.9859    9.1179   19.7775 C.ar        1 UCN      -0.0759
     22 C15         5.2985    9.6168   19.7521 C.ar        1 UCN      -0.0739
     23 C16         6.3500    8.8216   19.2572 C.ar        1 UCN      -0.0408
     24 C11         4.7720    5.8315   18.1232 C.ar        1 UCN       0.0037
     25 C10         3.7237    4.9589   17.7557 C.ar        1 UCN       0.0127
     26 C21         8.3583    6.6165   18.0079 C.3         1 UCN       0.2020
     27 O4          8.9091    5.2908   17.8080 O.3         1 UCN      -0.3149
     28 C25         8.8107    4.6303   16.5373 C.3         1 UCN       0.1668
     29 C24         9.3625    5.5303   15.3985 C.3         1 UCN       0.0455
     30 C23         8.7332    6.9514   15.4049 C.3         1 UCN       0.0141
     31 N4          7.4892    6.9831   14.5620 N.4         1 UCN       0.2291
     32 C28         6.1272    7.3023   15.0285 C.3         1 UCN      -0.0445
     33 C22         8.8494    7.5583   16.8411 C.3         1 UCN       0.1556
     34 O6          8.2555    8.8729   16.8672 O.3         1 UCN      -0.3686
     35 C27         9.0976    9.9561   17.2879 C.3         1 UCN       0.0373
     36 C26         9.0868    6.9504   19.3596 C.3         1 UCN      -0.0059
     37 H1          1.8825    6.0975   16.4448 H           1 UCN       0.2154
     38 H2          2.0644    5.0077   19.0860 H           1 UCN       0.1031
     39 H3          0.9184    3.5414   17.4224 H           1 UCN       0.1889
     40 H4          9.0492    2.6105   14.4559 H           1 UCN       0.0539
     41 H5          8.0580    1.0519   12.8881 H           1 UCN       0.0568
     42 H6          5.6669    0.6375   12.9247 H           1 UCN       0.0516
     43 H7          4.2616    1.7463   14.5394 H           1 UCN       0.0576
     44 H8          2.7647    7.4744   19.3151 H           1 UCN       0.0566
     45 H9          3.2204    9.7119   20.1002 H           1 UCN       0.0516
     46 H10         5.4894   10.5727   20.0620 H           1 UCN       0.0561
     47 H11         7.2716    9.2408   19.2181 H           1 UCN       0.0538
     48 H12         9.4918    3.7818   16.6386 H           1 UCN       0.0933
     49 H13         9.2220    5.0513   14.4235 H           1 UCN       0.0372
     50 H14        10.4453    5.6292   15.5491 H           1 UCN       0.0372
     51 H15         9.4234    7.5595   14.8073 H           1 UCN       0.0880
     52 H16         7.4197    6.0865   14.0778 H           1 UCN       0.2014
     53 H17         7.6695    7.6751   13.8324 H           1 UCN       0.2014
     54 H18         5.6209    7.8343   14.2189 H           1 UCN       0.0777
     55 H19         6.1127    7.9423   15.9068 H           1 UCN       0.0777
     56 H20         5.5650    6.3911   15.2145 H           1 UCN       0.0777
     57 H21         9.9323    7.6510   17.0020 H           1 UCN       0.0710
     58 H22         8.5103   10.8759   17.2821 H           1 UCN       0.0524
     59 H23         9.9378   10.0694   16.5969 H           1 UCN       0.0524
     60 H24         9.4638    9.7684   18.3028 H           1 UCN       0.0524
     61 H25        10.1639    6.7510   19.2887 H           1 UCN       0.0284
     62 H26         8.6961    6.3206   20.1659 H           1 UCN       0.0284
     63 H27         8.9904    7.9969   19.6450 H           1 UCN       0.0284
@<TRIPOS>BOND
     1     2     1   1
     2     2     3   1
     3     2    25   1
     4     3     4  am
     5     4     5   2
     6     4     6   1
     7     6     7  ar
     8    25     6  ar
     9     7     8   1
    10     7    15  ar
    11     8     9  ar
    12     8    13  ar
    13     9    10  ar
    14     9    14   1
    15    10    11  ar
    16    11    12  ar
    17    13    12  ar
    18    14    15   1
    19    14    28   1
    20    15    16  ar
    21    16    17   1
    22    16    24  ar
    23    17    18   1
    24    17    26   1
    25    18    19  ar
    26    18    23  ar
    27    19    20  ar
    28    19    24   1
    29    20    21  ar
    30    21    22  ar
    31    23    22  ar
    32    24    25  ar
    33    26    27   1
    34    26    33   1
    35    26    36   1
    36    27    28   1
    37    28    29   1
    38    29    30   1
    39    30    31   1
    40    33    30   1
    41    31    32   1
    42    33    34   1
    43    34    35   1
    44     1    37   1
    45     2    38   1
    46     3    39   1
    47    10    40   1
    48    11    41   1
    49    12    42   1
    50    13    43   1
    51    20    44   1
    52    21    45   1
    53    22    46   1
    54    23    47   1
    55    28    48   1
    56    29    49   1
    57    29    50   1
    58    30    51   1
    59    31    52   1
    60    31    53   1
    61    32    54   1
    62    32    55   1
    63    32    56   1
    64    33    57   1
    65    35    58   1
    66    35    59   1
    67    35    60   1
    68    36    61   1
    69    36    62   1
    70    36    63   1
@<TRIPOS>SUBSTRUCTURE
     1  UCN      2

