@<TRIPOS>MOLECULE
1nvq_ligand_009
    63    70
SMALL
GAST_HUCK
****
This file was generated by PARSER (from files_GN.cpp)

@<TRIPOS>ATOM
      1 O37         1.5419   -0.4888   17.3084 O.3         1 UCN      -0.3582
      2 C9          0.6299    0.1818   16.4451 C.3         1 UCN       0.1708
      3 N1         -0.6827    0.1435   16.9820 N.am        1 UCN      -0.2534
      4 C8         -1.1545    1.3251   17.2955 C.2         1 UCN       0.1891
      5 O5         -2.2904    1.4616   17.7236 O.2         1 UCN      -0.3964
      6 C7         -0.2433    2.2938   16.9754 C.ar        1 UCN       0.0346
      7 C6         -0.2222    3.7062   17.0972 C.ar        1 UCN      -0.0017
      8 C5         -1.0677    4.6428   17.6936 C.ar        1 UCN      -0.0071
      9 C20        -0.4710    5.8971   17.5058 C.ar        1 UCN       0.0681
     10 C1         -1.0767    7.0635   18.0296 C.ar        1 UCN      -0.0404
     11 C2         -2.2780    6.9561   18.7561 C.ar        1 UCN      -0.0732
     12 C3         -2.8728    5.6922   18.9524 C.ar        1 UCN      -0.0750
     13 C4         -2.2731    4.5343   18.4206 C.ar        1 UCN      -0.0685
     14 N3          0.6812    5.7524   16.8057 N.pl3       1 UCN      -0.2376
     15 C19         0.8616    4.4348   16.5653 C.ar        1 UCN       0.0952
     16 C18         1.9516    3.7768   15.9401 C.ar        1 UCN       0.0979
     17 N2          3.0957    4.2624   15.3715 N.pl3       1 UCN      -0.2292
     18 C17         3.8572    3.1724   15.0338 C.ar        1 UCN       0.0695
     19 C12         3.1498    1.9938   15.3185 C.ar        1 UCN      -0.0074
     20 C13         3.6703    0.7129   15.0314 C.ar        1 UCN      -0.0696
     21 C14         4.9466    0.6117   14.4463 C.ar        1 UCN      -0.0759
     22 C15         5.6901    1.7735   14.1800 C.ar        1 UCN      -0.0739
     23 C16         5.1527    3.0449   14.4717 C.ar        1 UCN      -0.0408
     24 C11         1.9511    2.3744   15.9040 C.ar        1 UCN       0.0037
     25 C10         0.8553    1.6336   16.4078 C.ar        1 UCN       0.0127
     26 C21         3.3753    5.6789   15.1008 C.3         1 UCN       0.2020
     27 O4          2.1695    6.4833   15.1229 O.3         1 UCN      -0.3149
     28 C25         1.5290    6.8200   16.3611 C.3         1 UCN       0.1668
     29 C24         2.5219    7.3531   17.4349 C.3         1 UCN       0.0455
     30 C23         3.8505    6.5478   17.5146 C.3         1 UCN       0.0141
     31 N4          3.6355    5.3380   18.3524 N.4         1 UCN       0.2291
     32 C28         4.7797    4.4257   18.5635 C.3         1 UCN      -0.0445
     33 C22         4.4173    6.3488   16.0669 C.3         1 UCN       0.1556
     34 O6          5.6706    5.6295   16.0388 O.3         1 UCN      -0.3686
     35 C27         6.8769    6.3450   16.3602 C.3         1 UCN       0.0373
     36 C26         3.8079    5.8988   13.6140 C.3         1 UCN      -0.0059
     37 H1          1.3644   -0.1356   18.2085 H           1 UCN       0.2154
     38 H2          0.6483   -0.2524   15.4441 H           1 UCN       0.1031
     39 H3         -1.1856   -0.6780   17.1037 H           1 UCN       0.1889
     40 H4         -0.6425    7.9792   17.9086 H           1 UCN       0.0539
     41 H5         -2.7146    7.7902   19.1560 H           1 UCN       0.0568
     42 H6         -3.7410    5.6162   19.4904 H           1 UCN       0.0516
     43 H7         -2.7135    3.6368   18.5930 H           1 UCN       0.0576
     44 H8          3.1461   -0.1398   15.2350 H           1 UCN       0.0566
     45 H9          5.3433   -0.3058   14.2306 H           1 UCN       0.0516
     46 H10         6.6298    1.6957   13.7829 H           1 UCN       0.0561
     47 H11         5.7419    3.8505   14.2908 H           1 UCN       0.0538
     48 H12         0.8784    7.6548   16.0872 H           1 UCN       0.0933
     49 H13         2.0312    7.3817   18.4118 H           1 UCN       0.0372
     50 H14         2.7740    8.3869   17.1804 H           1 UCN       0.0372
     51 H15         4.5612    7.1741   18.0623 H           1 UCN       0.0880
     52 H16         2.8639    4.7938   17.9704 H           1 UCN       0.2014
     53 H17         3.3532    5.6679   19.2769 H           1 UCN       0.2014
     54 H18         4.5623    3.7820   19.4198 H           1 UCN       0.0777
     55 H19         5.6967    4.9834   18.7711 H           1 UCN       0.0777
     56 H20         4.9271    3.7929   17.6856 H           1 UCN       0.0777
     57 H21         4.5982    7.3582   15.6704 H           1 UCN       0.0710
     58 H22         7.7163    5.6496   16.3022 H           1 UCN       0.0524
     59 H23         6.8339    6.7511   17.3728 H           1 UCN       0.0524
     60 H24         7.0509    7.1573   15.6477 H           1 UCN       0.0524
     61 H25         3.6937    6.9461   13.3217 H           1 UCN       0.0284
     62 H26         3.1954    5.2904   12.9453 H           1 UCN       0.0284
     63 H27         4.8515    5.6543   13.4459 H           1 UCN       0.0284
@<TRIPOS>BOND
     1     2     1   1
     2     2     3   1
     3     2    25   1
     4     3     4  am
     5     4     5   2
     6     4     6   1
     7     6     7  ar
     8    25     6  ar
     9     7     8   1
    10     7    15  ar
    11     8     9  ar
    12     8    13  ar
    13     9    10  ar
    14     9    14   1
    15    10    11  ar
    16    11    12  ar
    17    13    12  ar
    18    14    15   1
    19    14    28   1
    20    15    16  ar
    21    16    17   1
    22    16    24  ar
    23    17    18   1
    24    17    26   1
    25    18    19  ar
    26    18    23  ar
    27    19    20  ar
    28    19    24   1
    29    20    21  ar
    30    21    22  ar
    31    23    22  ar
    32    24    25  ar
    33    26    27   1
    34    26    33   1
    35    26    36   1
    36    27    28   1
    37    28    29   1
    38    29    30   1
    39    30    31   1
    40    33    30   1
    41    31    32   1
    42    33    34   1
    43    34    35   1
    44     1    37   1
    45     2    38   1
    46     3    39   1
    47    10    40   1
    48    11    41   1
    49    12    42   1
    50    13    43   1
    51    20    44   1
    52    21    45   1
    53    22    46   1
    54    23    47   1
    55    28    48   1
    56    29    49   1
    57    29    50   1
    58    30    51   1
    59    31    52   1
    60    31    53   1
    61    32    54   1
    62    32    55   1
    63    32    56   1
    64    33    57   1
    65    35    58   1
    66    35    59   1
    67    35    60   1
    68    36    61   1
    69    36    62   1
    70    36    63   1
@<TRIPOS>SUBSTRUCTURE
     1  UCN      2

