@<TRIPOS>MOLECULE
1nvq_ligand_001
    63    70
SMALL
GAST_HUCK
****
This file was generated by PARSER (from files_GN.cpp)

@<TRIPOS>ATOM
      1 O37         5.2183    9.5247   20.1736 O.3         1 UCN      -0.3582
      2 C9          5.7115    9.9216   18.8989 C.3         1 UCN       0.1708
      3 N1          7.0968   10.2126   18.9783 N.am        1 UCN      -0.2534
      4 C8          7.8363    9.4347   18.2312 C.2         1 UCN       0.1891
      5 O5          9.0475    9.5945   18.1569 O.2         1 UCN      -0.3964
      6 C7          7.0522    8.5395   17.5549 C.ar        1 UCN       0.0346
      7 C6          7.3100    7.4665   16.6644 C.ar        1 UCN      -0.0017
      8 C5          8.4657    6.8625   16.1750 C.ar        1 UCN      -0.0071
      9 C20         8.0540    5.8000   15.3564 C.ar        1 UCN       0.0681
     10 C1          9.0078    4.9662   14.7279 C.ar        1 UCN      -0.0404
     11 C2         10.3764    5.2095   14.9251 C.ar        1 UCN      -0.0732
     12 C3         10.7966    6.2712   15.7493 C.ar        1 UCN      -0.0750
     13 C4          9.8455    7.0992   16.3763 C.ar        1 UCN      -0.0685
     14 N3          6.7017    5.7509   15.3266 N.pl3       1 UCN      -0.2376
     15 C19         6.2244    6.7520   16.1035 C.ar        1 UCN       0.0952
     16 C18         4.8855    7.0768   16.4365 C.ar        1 UCN       0.0979
     17 N2          3.6994    6.5255   16.0555 N.pl3       1 UCN      -0.2292
     18 C17         2.7115    7.1465   16.7818 C.ar        1 UCN       0.0695
     19 C12         3.2849    8.1505   17.5732 C.ar        1 UCN      -0.0074
     20 C13         2.5028    8.9843   18.4008 C.ar        1 UCN      -0.0696
     21 C14         1.1134    8.7866   18.4585 C.ar        1 UCN      -0.0759
     22 C15         0.5182    7.7687   17.6929 C.ar        1 UCN      -0.0739
     23 C16         1.3113    6.9608   16.8503 C.ar        1 UCN      -0.0408
     24 C11         4.6573    8.0972   17.3710 C.ar        1 UCN       0.0037
     25 C10         5.7304    8.8267   17.9266 C.ar        1 UCN       0.0127
     26 C21         3.5471    5.4720   15.0540 C.3         1 UCN       0.2020
     27 O4          4.6858    5.3950   14.1589 O.3         1 UCN      -0.3149
     28 C25         5.9175    4.8057   14.5836 C.3         1 UCN       0.1668
     29 C24         5.7241    3.4257   15.2790 C.3         1 UCN       0.0455
     30 C23         4.5811    3.4352   16.3343 C.3         1 UCN       0.0141
     31 N4          5.1346    4.0021   17.6005 N.4         1 UCN       0.2291
     32 C28         4.2308    4.6304   18.5862 C.3         1 UCN      -0.0445
     33 C22         3.3008    4.0547   15.6785 C.3         1 UCN       0.1556
     34 O6          2.1758    4.0711   16.5836 O.3         1 UCN      -0.3686
     35 C27         1.2892    2.9364   16.5393 C.3         1 UCN       0.0373
     36 C26         2.4433    5.8129   14.0001 C.3         1 UCN      -0.0059
     37 H1          5.6874    8.6916   20.3943 H           1 UCN       0.2154
     38 H2          5.1617   10.7820   18.5168 H           1 UCN       0.1031
     39 H3          7.4567   10.9261   19.5335 H           1 UCN       0.1889
     40 H4          8.7146    4.1807   14.1436 H           1 UCN       0.0539
     41 H5         11.0727    4.6048   14.4828 H           1 UCN       0.0568
     42 H6         11.7915    6.4312   15.9065 H           1 UCN       0.0516
     43 H7         10.1691    7.8446   16.9766 H           1 UCN       0.0576
     44 H8          2.9220    9.7371   18.9434 H           1 UCN       0.0566
     45 H9          0.5340    9.3825   19.0538 H           1 UCN       0.0516
     46 H10        -0.4953    7.6278   17.7322 H           1 UCN       0.0561
     47 H11         0.8356    6.2330   16.3275 H           1 UCN       0.0538
     48 H12         6.4358    4.6188   13.6414 H           1 UCN       0.0933
     49 H13         6.6617    3.0993   15.7390 H           1 UCN       0.0372
     50 H14         5.4728    2.6839   14.5140 H           1 UCN       0.0372
     51 H15         4.3427    2.3911   16.5704 H           1 UCN       0.0880
     52 H16         5.8723    4.6740   17.3763 H           1 UCN       0.2014
     53 H17         5.5826    3.2075   18.0798 H           1 UCN       0.2014
     54 H18         4.7176    4.6134   19.5690 H           1 UCN       0.0777
     55 H19         3.2905    4.0804   18.6561 H           1 UCN       0.0777
     56 H20         4.0342    5.6653   18.3101 H           1 UCN       0.0777
     57 H21         3.0638    3.4013   14.8274 H           1 UCN       0.0710
     58 H22         0.5148    3.0647   17.2953 H           1 UCN       0.0524
     59 H23         1.8312    2.0122   16.7460 H           1 UCN       0.0524
     60 H24         0.8063    2.8688   15.5612 H           1 UCN       0.0524
     61 H25         2.5631    5.2166   13.0901 H           1 UCN       0.0284
     62 H26         2.4971    6.8697   13.7293 H           1 UCN       0.0284
     63 H27         1.4449    5.5962   14.3602 H           1 UCN       0.0284
@<TRIPOS>BOND
     1     2     1   1
     2     2     3   1
     3     2    25   1
     4     3     4  am
     5     4     5   2
     6     4     6   1
     7     6     7  ar
     8    25     6  ar
     9     7     8   1
    10     7    15  ar
    11     8     9  ar
    12     8    13  ar
    13     9    10  ar
    14     9    14   1
    15    10    11  ar
    16    11    12  ar
    17    13    12  ar
    18    14    15   1
    19    14    28   1
    20    15    16  ar
    21    16    17   1
    22    16    24  ar
    23    17    18   1
    24    17    26   1
    25    18    19  ar
    26    18    23  ar
    27    19    20  ar
    28    19    24   1
    29    20    21  ar
    30    21    22  ar
    31    23    22  ar
    32    24    25  ar
    33    26    27   1
    34    26    33   1
    35    26    36   1
    36    27    28   1
    37    28    29   1
    38    29    30   1
    39    30    31   1
    40    33    30   1
    41    31    32   1
    42    33    34   1
    43    34    35   1
    44     1    37   1
    45     2    38   1
    46     3    39   1
    47    10    40   1
    48    11    41   1
    49    12    42   1
    50    13    43   1
    51    20    44   1
    52    21    45   1
    53    22    46   1
    54    23    47   1
    55    28    48   1
    56    29    49   1
    57    29    50   1
    58    30    51   1
    59    31    52   1
    60    31    53   1
    61    32    54   1
    62    32    55   1
    63    32    56   1
    64    33    57   1
    65    35    58   1
    66    35    59   1
    67    35    60   1
    68    36    61   1
    69    36    62   1
    70    36    63   1
@<TRIPOS>SUBSTRUCTURE
     1  UCN      2

