@<TRIPOS>MOLECULE
1nvq_ligand_010
    63    70
SMALL
GAST_HUCK
****
This file was generated by PARSER (from files_GN.cpp)

@<TRIPOS>ATOM
      1 O37         2.4152    8.4431   18.5271 O.3         1 UCN      -0.3582
      2 C9          2.6690    7.1833   19.1429 C.3         1 UCN       0.1708
      3 N1          1.5972    6.2949   18.8929 N.am        1 UCN      -0.2534
      4 C8          1.9427    5.2454   18.1843 C.2         1 UCN       0.1891
      5 O5          1.1290    4.3860   17.8948 O.2         1 UCN      -0.3964
      6 C7          3.2798    5.2888   17.9005 C.ar        1 UCN       0.0346
      7 C6          4.1604    4.4634   17.1555 C.ar        1 UCN      -0.0017
      8 C5          3.9934    3.3217   16.3686 C.ar        1 UCN      -0.0071
      9 C20         5.2621    2.9946   15.8637 C.ar        1 UCN       0.0681
     10 C1          5.4295    1.8734   15.0192 C.ar        1 UCN      -0.0404
     11 C2          4.3138    1.0850   14.6826 C.ar        1 UCN      -0.0732
     12 C3          3.0379    1.4221   15.1744 C.ar        1 UCN      -0.0750
     13 C4          2.8731    2.5416   16.0143 C.ar        1 UCN      -0.0685
     14 N3          6.1743    3.8876   16.3172 N.pl3       1 UCN      -0.2376
     15 C19         5.5320    4.7859   17.0987 C.ar        1 UCN       0.0952
     16 C18         6.0417    5.9472   17.7404 C.ar        1 UCN       0.0979
     17 N2          7.2964    6.4830   17.7888 N.pl3       1 UCN      -0.2292
     18 C17         7.1873    7.6965   18.4219 C.ar        1 UCN       0.0695
     19 C12         5.8615    7.8895   18.8416 C.ar        1 UCN      -0.0074
     20 C13         5.4588    9.0425   19.5467 C.ar        1 UCN      -0.0696
     21 C14         6.4065   10.0441   19.8157 C.ar        1 UCN      -0.0759
     22 C15         7.7364    9.8861   19.3939 C.ar        1 UCN      -0.0739
     23 C16         8.1256    8.7215   18.7031 C.ar        1 UCN      -0.0408
     24 C11         5.1383    6.7882   18.4076 C.ar        1 UCN       0.0037
     25 C10         3.7696    6.4565   18.5019 C.ar        1 UCN       0.0127
     26 C21         8.5121    5.8300   17.2917 C.3         1 UCN       0.2020
     27 O4          8.3400    4.4039   17.1279 O.3         1 UCN      -0.3149
     28 C25         7.5818    3.8554   16.0431 C.3         1 UCN       0.1668
     29 C24         7.9864    4.4667   14.6743 C.3         1 UCN       0.0455
     30 C23         8.1545    6.0130   14.7178 C.3         1 UCN       0.0141
     31 N4          6.8483    6.7291   14.6918 N.4         1 UCN       0.2291
     32 C28         6.2080    6.8892   13.3714 C.3         1 UCN      -0.0445
     33 C22         9.0436    6.4154   15.9364 C.3         1 UCN       0.1556
     34 O6          9.1665    7.8594   15.9910 O.3         1 UCN      -0.3686
     35 C27        10.4699    8.4209   15.7500 C.3         1 UCN       0.0373
     36 C26         9.6470    5.8195   18.3653 C.3         1 UCN      -0.0059
     37 H1          2.2922    8.2519   17.5764 H           1 UCN       0.2154
     38 H2          2.8303    7.2874   20.2196 H           1 UCN       0.1031
     39 H3          0.6928    6.4510   19.2061 H           1 UCN       0.1889
     40 H4          6.3485    1.6265   14.6460 H           1 UCN       0.0539
     41 H5          4.4275    0.2698   14.0734 H           1 UCN       0.0568
     42 H6          2.2285    0.8520   14.9184 H           1 UCN       0.0516
     43 H7          1.9429    2.7638   16.3442 H           1 UCN       0.0576
     44 H8          4.5023    9.1674   19.8677 H           1 UCN       0.0566
     45 H9          6.1234   10.8868   20.3188 H           1 UCN       0.0516
     46 H10         8.4257   10.6150   19.5913 H           1 UCN       0.0561
     47 H11         9.0902    8.6602   18.4002 H           1 UCN       0.0538
     48 H12         7.8853    2.8041   16.0316 H           1 UCN       0.0933
     49 H13         7.2649    4.1787   13.9099 H           1 UCN       0.0372
     50 H14         8.9460    4.0296   14.3814 H           1 UCN       0.0372
     51 H15         8.7159    6.3052   13.8256 H           1 UCN       0.0880
     52 H16         6.9905    7.6674   15.0665 H           1 UCN       0.2014
     53 H17         6.1922    6.2403   15.2978 H           1 UCN       0.2014
     54 H18         5.2120    7.3088   13.5111 H           1 UCN       0.0777
     55 H19         6.1104    5.9358   12.8493 H           1 UCN       0.0777
     56 H20         6.7893    7.5780   12.7582 H           1 UCN       0.0777
     57 H21        10.0242    5.9541   15.7512 H           1 UCN       0.0710
     58 H22        10.3988    9.5060   15.8063 H           1 UCN       0.0524
     59 H23        10.8412    8.1430   14.7621 H           1 UCN       0.0524
     60 H24        11.1757    8.0768   16.5050 H           1 UCN       0.0524
     61 H25        10.4153    5.0842   18.1170 H           1 UCN       0.0284
     62 H26         9.2423    5.5643   19.3460 H           1 UCN       0.0284
     63 H27        10.1577    6.7702   18.4442 H           1 UCN       0.0284
@<TRIPOS>BOND
     1     2     1   1
     2     2     3   1
     3     2    25   1
     4     3     4  am
     5     4     5   2
     6     4     6   1
     7     6     7  ar
     8    25     6  ar
     9     7     8   1
    10     7    15  ar
    11     8     9  ar
    12     8    13  ar
    13     9    10  ar
    14     9    14   1
    15    10    11  ar
    16    11    12  ar
    17    13    12  ar
    18    14    15   1
    19    14    28   1
    20    15    16  ar
    21    16    17   1
    22    16    24  ar
    23    17    18   1
    24    17    26   1
    25    18    19  ar
    26    18    23  ar
    27    19    20  ar
    28    19    24   1
    29    20    21  ar
    30    21    22  ar
    31    23    22  ar
    32    24    25  ar
    33    26    27   1
    34    26    33   1
    35    26    36   1
    36    27    28   1
    37    28    29   1
    38    29    30   1
    39    30    31   1
    40    33    30   1
    41    31    32   1
    42    33    34   1
    43    34    35   1
    44     1    37   1
    45     2    38   1
    46     3    39   1
    47    10    40   1
    48    11    41   1
    49    12    42   1
    50    13    43   1
    51    20    44   1
    52    21    45   1
    53    22    46   1
    54    23    47   1
    55    28    48   1
    56    29    49   1
    57    29    50   1
    58    30    51   1
    59    31    52   1
    60    31    53   1
    61    32    54   1
    62    32    55   1
    63    32    56   1
    64    33    57   1
    65    35    58   1
    66    35    59   1
    67    35    60   1
    68    36    61   1
    69    36    62   1
    70    36    63   1
@<TRIPOS>SUBSTRUCTURE
     1  UCN      2

