@<TRIPOS>MOLECULE
1nvq_ligand_024
    63    70
SMALL
GAST_HUCK
****
This file was generated by PARSER (from files_GN.cpp)

@<TRIPOS>ATOM
      1 O37        11.0919   10.9181   17.3713 O.3         1 UCN      -0.3582
      2 C9         10.8139   10.5566   16.0301 C.3         1 UCN       0.1708
      3 N1         12.0230   10.2977   15.3381 N.am        1 UCN      -0.2534
      4 C8         12.0756    9.0934   14.8239 C.2         1 UCN       0.1891
      5 O5         12.9934    8.7639   14.0889 O.2         1 UCN      -0.3964
      6 C7         10.9463    8.3945   15.1384 C.ar        1 UCN       0.0346
      7 C6         10.4790    7.0909   14.8353 C.ar        1 UCN      -0.0017
      8 C5         11.0216    5.9714   14.1988 C.ar        1 UCN      -0.0071
      9 C20        10.0587    4.9566   14.2751 C.ar        1 UCN       0.0681
     10 C1         10.3171    3.6688   13.7558 C.ar        1 UCN      -0.0404
     11 C2         11.5337    3.4283   13.0921 C.ar        1 UCN      -0.0732
     12 C3         12.4848    4.4591   12.9691 C.ar        1 UCN      -0.0750
     13 C4         12.2388    5.7298   13.5336 C.ar        1 UCN      -0.0685
     14 N3          8.9349    5.4439   14.8483 N.pl3       1 UCN      -0.2376
     15 C19         9.1655    6.7260   15.2040 C.ar        1 UCN       0.0952
     16 C18         8.3193    7.6257   15.8972 C.ar        1 UCN       0.0979
     17 N2          7.0367    7.5060   16.3553 N.pl3       1 UCN      -0.2292
     18 C17         6.7701    8.6037   17.1112 C.ar        1 UCN       0.0695
     19 C12         7.8684    9.4752   17.0723 C.ar        1 UCN      -0.0074
     20 C13         7.8431   10.7294   17.7171 C.ar        1 UCN      -0.0696
     21 C14         6.7001   11.1058   18.4362 C.ar        1 UCN      -0.0759
     22 C15         5.6038   10.2408   18.5255 C.ar        1 UCN      -0.0739
     23 C16         5.6335    8.9947   17.8738 C.ar        1 UCN      -0.0408
     24 C11         8.8537    8.8594   16.3107 C.ar        1 UCN       0.0037
     25 C10        10.1453    9.2587   15.8967 C.ar        1 UCN       0.0127
     26 C21         6.1318    6.3926   16.0388 C.3         1 UCN       0.2020
     27 O4          6.5743    5.6283   14.8898 O.3         1 UCN      -0.3149
     28 C25         7.6933    4.7412   14.9667 C.3         1 UCN       0.1668
     29 C24         7.6310    3.7995   16.1952 C.3         1 UCN       0.0455
     30 C23         7.2550    4.5625   17.5034 C.3         1 UCN       0.0141
     31 N4          8.3381    5.4184   18.0744 N.4         1 UCN       0.2291
     32 C28         9.6031    4.8246   18.5475 C.3         1 UCN      -0.0445
     33 C22         5.9543    5.3911   17.2366 C.3         1 UCN       0.1556
     34 O6          5.5710    6.0526   18.4694 O.3         1 UCN      -0.3686
     35 C27         4.2614    5.7844   18.9834 C.3         1 UCN       0.0373
     36 C26         4.7779    6.9001   15.4594 C.3         1 UCN      -0.0059
     37 H1         11.5523   11.7814   17.3032 H           1 UCN       0.2154
     38 H2         10.2477   11.3362   15.5217 H           1 UCN       0.1031
     39 H3         12.7198   10.9645   15.2036 H           1 UCN       0.1889
     40 H4          9.6261    2.9202   13.8238 H           1 UCN       0.0539
     41 H5         11.7249    2.5059   12.6886 H           1 UCN       0.0568
     42 H6         13.3601    4.2828   12.4723 H           1 UCN       0.0516
     43 H7         12.9326    6.4578   13.4143 H           1 UCN       0.0576
     44 H8          8.6321   11.3626   17.6655 H           1 UCN       0.0566
     45 H9          6.6638   12.0242   18.8876 H           1 UCN       0.0516
     46 H10         4.7750   10.5166   19.0542 H           1 UCN       0.0561
     47 H11         4.8275    8.3986   17.9673 H           1 UCN       0.0538
     48 H12         7.5807    4.1189   14.0748 H           1 UCN       0.0933
     49 H13         8.5657    3.2542   16.3128 H           1 UCN       0.0372
     50 H14         6.8564    3.0480   16.0079 H           1 UCN       0.0372
     51 H15         7.0003    3.8116   18.2590 H           1 UCN       0.0880
     52 H16         7.9447    5.9480   18.8519 H           1 UCN       0.2014
     53 H17         8.6092    6.0773   17.3689 H           1 UCN       0.2014
     54 H18        10.2555    5.6361   18.8654 H           1 UCN       0.0777
     55 H19        10.1046    4.2820   17.7496 H           1 UCN       0.0777
     56 H20         9.4412    4.1661   19.3993 H           1 UCN       0.0777
     57 H21         5.1836    4.6590   16.9459 H           1 UCN       0.0710
     58 H22         3.4851    6.0607   18.2662 H           1 UCN       0.0524
     59 H23         4.1103    6.3728   19.8859 H           1 UCN       0.0524
     60 H24         4.1662    4.7294   19.2343 H           1 UCN       0.0524
     61 H25         4.2126    6.0923   14.9941 H           1 UCN       0.0284
     62 H26         4.9571    7.6545   14.6988 H           1 UCN       0.0284
     63 H27         4.1164    7.3240   16.2063 H           1 UCN       0.0284
@<TRIPOS>BOND
     1     2     1   1
     2     2     3   1
     3     2    25   1
     4     3     4  am
     5     4     5   2
     6     4     6   1
     7     6     7  ar
     8    25     6  ar
     9     7     8   1
    10     7    15  ar
    11     8     9  ar
    12     8    13  ar
    13     9    10  ar
    14     9    14   1
    15    10    11  ar
    16    11    12  ar
    17    13    12  ar
    18    14    15   1
    19    14    28   1
    20    15    16  ar
    21    16    17   1
    22    16    24  ar
    23    17    18   1
    24    17    26   1
    25    18    19  ar
    26    18    23  ar
    27    19    20  ar
    28    19    24   1
    29    20    21  ar
    30    21    22  ar
    31    23    22  ar
    32    24    25  ar
    33    26    27   1
    34    26    33   1
    35    26    36   1
    36    27    28   1
    37    28    29   1
    38    29    30   1
    39    30    31   1
    40    33    30   1
    41    31    32   1
    42    33    34   1
    43    34    35   1
    44     1    37   1
    45     2    38   1
    46     3    39   1
    47    10    40   1
    48    11    41   1
    49    12    42   1
    50    13    43   1
    51    20    44   1
    52    21    45   1
    53    22    46   1
    54    23    47   1
    55    28    48   1
    56    29    49   1
    57    29    50   1
    58    30    51   1
    59    31    52   1
    60    31    53   1
    61    32    54   1
    62    32    55   1
    63    32    56   1
    64    33    57   1
    65    35    58   1
    66    35    59   1
    67    35    60   1
    68    36    61   1
    69    36    62   1
    70    36    63   1
@<TRIPOS>SUBSTRUCTURE
     1  UCN      2

