@<TRIPOS>MOLECULE
1nvq_ligand_006
    63    70
SMALL
GAST_HUCK
****
This file was generated by PARSER (from files_GN.cpp)

@<TRIPOS>ATOM
      1 O37        -2.5212    6.5886   16.2615 O.3         1 UCN      -0.3582
      2 C9         -2.4219    5.3588   16.9687 C.3         1 UCN       0.1708
      3 N1         -3.2972    4.4162   16.3798 N.am        1 UCN      -0.2534
      4 C8         -2.6897    3.3645   15.8915 C.2         1 UCN       0.1891
      5 O5         -3.3156    2.4697   15.3544 O.2         1 UCN      -0.3964
      6 C7         -1.3383    3.4684   16.0965 C.ar        1 UCN       0.0346
      7 C6         -0.2257    2.6786   15.7223 C.ar        1 UCN      -0.0017
      8 C5         -0.0684    1.5188   14.9568 C.ar        1 UCN      -0.0071
      9 C20         1.3065    1.2741   14.8826 C.ar        1 UCN       0.0681
     10 C1          1.8069    0.1759   14.1456 C.ar        1 UCN      -0.0404
     11 C2          0.9060   -0.6714   13.4742 C.ar        1 UCN      -0.0732
     12 C3         -0.4774   -0.4274   13.5440 C.ar        1 UCN      -0.0750
     13 C4         -0.9693    0.6624   14.2832 C.ar        1 UCN      -0.0685
     14 N3          1.9733    2.2250   15.5782 N.pl3       1 UCN      -0.2376
     15 C19         1.0738    3.0905   16.0893 C.ar        1 UCN       0.0952
     16 C18         1.2836    4.2909   16.8170 C.ar        1 UCN       0.0979
     17 N2          2.4301    4.9146   17.2205 N.pl3       1 UCN      -0.2292
     18 C17         2.0601    6.1212   17.7525 C.ar        1 UCN       0.0695
     19 C12         0.6616    6.2321   17.7376 C.ar        1 UCN      -0.0074
     20 C13        -0.0076    7.3724   18.2291 C.ar        1 UCN      -0.0696
     21 C14         0.7469    8.4294   18.7684 C.ar        1 UCN      -0.0759
     22 C15         2.1491    8.3494   18.7848 C.ar        1 UCN      -0.0739
     23 C16         2.8013    7.2020   18.2900 C.ar        1 UCN      -0.0408
     24 C11         0.1720    5.0834   17.1298 C.ar        1 UCN       0.0037
     25 C10        -1.1326    4.6813   16.7687 C.ar        1 UCN       0.0127
     26 C21         3.7824    4.3616   17.0970 C.3         1 UCN       0.2020
     27 O4          3.7687    2.9192   16.9525 O.3         1 UCN      -0.3149
     28 C25         3.3999    2.3049   15.7094 C.3         1 UCN       0.1668
     29 C24         4.1282    2.9372   14.4870 C.3         1 UCN       0.0455
     30 C23         4.1150    4.4954   14.5108 C.3         1 UCN       0.0141
     31 N4          2.7883    4.9851   14.0251 N.4         1 UCN       0.2291
     32 C28         2.3823    6.3795   14.3138 C.3         1 UCN      -0.0445
     33 C22         4.6240    4.9724   15.9159 C.3         1 UCN       0.1556
     34 O6          4.6934    6.4083   16.0449 O.3         1 UCN      -0.3686
     35 C27         5.9482    7.0630   15.7800 C.3         1 UCN       0.0373
     36 C26         4.5842    4.4569   18.4356 C.3         1 UCN      -0.0059
     37 H1         -3.4324    6.5873   15.8882 H           1 UCN       0.2154
     38 H2         -2.6629    5.4915   18.0234 H           1 UCN       0.1031
     39 H3         -4.2525    4.5760   16.2788 H           1 UCN       0.1889
     40 H4          2.8116   -0.0073   14.0862 H           1 UCN       0.0539
     41 H5          1.2625   -1.4641   12.9334 H           1 UCN       0.0568
     42 H6         -1.1237   -1.0439   13.0514 H           1 UCN       0.0516
     43 H7         -1.9685    0.8166   14.3080 H           1 UCN       0.0576
     44 H8         -1.0217    7.4535   18.1960 H           1 UCN       0.0566
     45 H9          0.2796    9.2649   19.1244 H           1 UCN       0.0516
     46 H10         2.6991    9.1342   19.1504 H           1 UCN       0.0561
     47 H11         3.8164    7.2145   18.2777 H           1 UCN       0.0538
     48 H12         3.7756    1.2837   15.8194 H           1 UCN       0.0933
     49 H13         3.6953    2.5677   13.5542 H           1 UCN       0.0372
     50 H14         5.1712    2.6067   14.5081 H           1 UCN       0.0372
     51 H15         4.8415    4.8238   13.7608 H           1 UCN       0.0880
     52 H16         2.0487    4.3828   14.3862 H           1 UCN       0.2014
     53 H17         2.7930    4.8838   13.0038 H           1 UCN       0.2014
     54 H18         1.4911    6.5949   13.7076 H           1 UCN       0.0777
     55 H19         3.1777    7.0911   14.0389 H           1 UCN       0.0777
     56 H20         2.1192    6.4859   15.3736 H           1 UCN       0.0777
     57 H21         5.6449    4.5781   16.0195 H           1 UCN       0.0710
     58 H22         5.8071    8.1314   15.9570 H           1 UCN       0.0524
     59 H23         6.2654    6.9271   14.7422 H           1 UCN       0.0524
     60 H24         6.7338    6.7016   16.4527 H           1 UCN       0.0524
     61 H25         5.4199    3.7499   18.4494 H           1 UCN       0.0284
     62 H26         3.9344    4.2246   19.2778 H           1 UCN       0.0284
     63 H27         5.0233    5.4365   18.5898 H           1 UCN       0.0284
@<TRIPOS>BOND
     1     2     1   1
     2     2     3   1
     3     2    25   1
     4     3     4  am
     5     4     5   2
     6     4     6   1
     7     6     7  ar
     8    25     6  ar
     9     7     8   1
    10     7    15  ar
    11     8     9  ar
    12     8    13  ar
    13     9    10  ar
    14     9    14   1
    15    10    11  ar
    16    11    12  ar
    17    13    12  ar
    18    14    15   1
    19    14    28   1
    20    15    16  ar
    21    16    17   1
    22    16    24  ar
    23    17    18   1
    24    17    26   1
    25    18    19  ar
    26    18    23  ar
    27    19    20  ar
    28    19    24   1
    29    20    21  ar
    30    21    22  ar
    31    23    22  ar
    32    24    25  ar
    33    26    27   1
    34    26    33   1
    35    26    36   1
    36    27    28   1
    37    28    29   1
    38    29    30   1
    39    30    31   1
    40    33    30   1
    41    31    32   1
    42    33    34   1
    43    34    35   1
    44     1    37   1
    45     2    38   1
    46     3    39   1
    47    10    40   1
    48    11    41   1
    49    12    42   1
    50    13    43   1
    51    20    44   1
    52    21    45   1
    53    22    46   1
    54    23    47   1
    55    28    48   1
    56    29    49   1
    57    29    50   1
    58    30    51   1
    59    31    52   1
    60    31    53   1
    61    32    54   1
    62    32    55   1
    63    32    56   1
    64    33    57   1
    65    35    58   1
    66    35    59   1
    67    35    60   1
    68    36    61   1
    69    36    62   1
    70    36    63   1
@<TRIPOS>SUBSTRUCTURE
     1  UCN      2

