@<TRIPOS>MOLECULE
1nvq_ligand_012
    63    70
SMALL
GAST_HUCK
****
This file was generated by PARSER (from files_GN.cpp)

@<TRIPOS>ATOM
      1 O37        -2.9852    4.5581   14.5663 O.3         1 UCN      -0.3582
      2 C9         -3.4871    3.2279   14.6109 C.3         1 UCN       0.1708
      3 N1         -4.6049    3.1082   13.7502 N.am        1 UCN      -0.2534
      4 C8         -4.4215    2.2499   12.7752 C.2         1 UCN       0.1891
      5 O5         -5.3093    2.0072   11.9772 O.2         1 UCN      -0.3964
      6 C7         -3.1711    1.7015   12.8580 C.ar        1 UCN       0.0346
      7 C6         -2.4355    0.7940   12.0546 C.ar        1 UCN      -0.0017
      8 C5         -2.6790    0.1562   10.8357 C.ar        1 UCN      -0.0071
      9 C20        -1.5235   -0.5759   10.5278 C.ar        1 UCN       0.0681
     10 C1         -1.4467   -1.3282    9.3346 C.ar        1 UCN      -0.0404
     11 C2         -2.5418   -1.3386    8.4510 C.ar        1 UCN      -0.0732
     12 C3         -3.6987   -0.5948    8.7520 C.ar        1 UCN      -0.0750
     13 C4         -3.7696    0.1578    9.9398 C.ar        1 UCN      -0.0685
     14 N3         -0.6043   -0.4054   11.5084 N.pl3       1 UCN      -0.2376
     15 C19        -1.1345    0.4141   12.4446 C.ar        1 UCN       0.0952
     16 C18        -0.5345    0.9487   13.6139 C.ar        1 UCN       0.0979
     17 N2          0.7117    0.7851   14.1478 N.pl3       1 UCN      -0.2292
     18 C17         0.8169    1.6681   15.1890 C.ar        1 UCN       0.0695
     19 C12        -0.4041    2.3404   15.3580 C.ar        1 UCN      -0.0074
     20 C13        -0.5903    3.3075   16.3670 C.ar        1 UCN      -0.0696
     21 C14         0.4921    3.6477   17.1957 C.ar        1 UCN      -0.0759
     22 C15         1.7329    3.0074   17.0299 C.ar        1 UCN      -0.0739
     23 C16         1.8895    2.0095   16.0498 C.ar        1 UCN      -0.0408
     24 C11        -1.2553    1.8943   14.3590 C.ar        1 UCN       0.0037
     25 C10        -2.5690    2.2630   13.9928 C.ar        1 UCN       0.0127
     26 C21         1.7172   -0.1742   13.6787 C.3         1 UCN       0.2020
     27 O4          1.1264   -1.2366   12.8923 O.3         1 UCN      -0.3149
     28 C25         0.7008   -1.0020   11.5433 C.3         1 UCN       0.1668
     29 C24         1.7743   -0.2634   10.6892 C.3         1 UCN       0.0455
     30 C23         2.4162    0.9480   11.4241 C.3         1 UCN       0.0141
     31 N4          1.4958    2.1163   11.3244 N.4         1 UCN       0.2291
     32 C28         1.8882    3.3953   11.9447 C.3         1 UCN      -0.0445
     33 C22         2.8800    0.4736   12.8426 C.3         1 UCN       0.1556
     34 O6          3.5278    1.5329   13.5763 O.3         1 UCN      -0.3686
     35 C27         4.9456    1.6940   13.4080 C.3         1 UCN       0.0373
     36 C26         2.2980   -1.0304   14.8555 C.3         1 UCN      -0.0059
     37 H1         -3.7030    5.1134   14.9363 H           1 UCN       0.2154
     38 H2         -3.7494    2.9357   15.6298 H           1 UCN       0.1031
     39 H3         -5.4148    3.6356   13.8525 H           1 UCN       0.1889
     40 H4         -0.6063   -1.8583    9.0988 H           1 UCN       0.0539
     41 H5         -2.4948   -1.8796    7.5849 H           1 UCN       0.0568
     42 H6         -4.4874   -0.5955    8.1013 H           1 UCN       0.0516
     43 H7         -4.6090    0.6975   10.1204 H           1 UCN       0.0576
     44 H8         -1.4862    3.7726   16.5018 H           1 UCN       0.0566
     45 H9          0.3793    4.3635   17.9174 H           1 UCN       0.0516
     46 H10         2.5233    3.2648   17.6257 H           1 UCN       0.0561
     47 H11         2.8024    1.5763   15.9683 H           1 UCN       0.0538
     48 H12         0.6065   -2.0133   11.1386 H           1 UCN       0.0933
     49 H13         1.3439    0.0546    9.7358 H           1 UCN       0.0372
     50 H14         2.5695   -0.9780   10.4538 H           1 UCN       0.0372
     51 H15         3.3120    1.2239   10.8597 H           1 UCN       0.0880
     52 H16         0.5898    1.8583   11.7027 H           1 UCN       0.2014
     53 H17         1.3644    2.3064   10.3276 H           1 UCN       0.2014
     54 H18         1.1869    4.1673   11.6307 H           1 UCN       0.0777
     55 H19         2.8929    3.6891   11.6376 H           1 UCN       0.0777
     56 H20         1.8381    3.3300   13.0296 H           1 UCN       0.0777
     57 H21         3.6086   -0.3306   12.6731 H           1 UCN       0.0710
     58 H22         5.2610    2.5699   13.9747 H           1 UCN       0.0524
     59 H23         5.2101    1.8435   12.3602 H           1 UCN       0.0524
     60 H24         5.4734    0.8217   13.7992 H           1 UCN       0.0524
     61 H25         2.7578   -1.9528   14.4876 H           1 UCN       0.0284
     62 H26         1.5056   -1.3070   15.5544 H           1 UCN       0.0284
     63 H27         3.0789   -0.5112   15.4032 H           1 UCN       0.0284
@<TRIPOS>BOND
     1     2     1   1
     2     2     3   1
     3     2    25   1
     4     3     4  am
     5     4     5   2
     6     4     6   1
     7     6     7  ar
     8    25     6  ar
     9     7     8   1
    10     7    15  ar
    11     8     9  ar
    12     8    13  ar
    13     9    10  ar
    14     9    14   1
    15    10    11  ar
    16    11    12  ar
    17    13    12  ar
    18    14    15   1
    19    14    28   1
    20    15    16  ar
    21    16    17   1
    22    16    24  ar
    23    17    18   1
    24    17    26   1
    25    18    19  ar
    26    18    23  ar
    27    19    20  ar
    28    19    24   1
    29    20    21  ar
    30    21    22  ar
    31    23    22  ar
    32    24    25  ar
    33    26    27   1
    34    26    33   1
    35    26    36   1
    36    27    28   1
    37    28    29   1
    38    29    30   1
    39    30    31   1
    40    33    30   1
    41    31    32   1
    42    33    34   1
    43    34    35   1
    44     1    37   1
    45     2    38   1
    46     3    39   1
    47    10    40   1
    48    11    41   1
    49    12    42   1
    50    13    43   1
    51    20    44   1
    52    21    45   1
    53    22    46   1
    54    23    47   1
    55    28    48   1
    56    29    49   1
    57    29    50   1
    58    30    51   1
    59    31    52   1
    60    31    53   1
    61    32    54   1
    62    32    55   1
    63    32    56   1
    64    33    57   1
    65    35    58   1
    66    35    59   1
    67    35    60   1
    68    36    61   1
    69    36    62   1
    70    36    63   1
@<TRIPOS>SUBSTRUCTURE
     1  UCN      2

