@<TRIPOS>MOLECULE
1nvq_ligand_017
    63    70
SMALL
GAST_HUCK
****
This file was generated by PARSER (from files_GN.cpp)

@<TRIPOS>ATOM
      1 O37        -0.5500    0.4549   20.2032 O.3         1 UCN      -0.3582
      2 C9         -1.4623    1.2574   19.4564 C.3         1 UCN       0.1708
      3 N1         -2.0175    2.2229   20.3270 N.am        1 UCN      -0.2534
      4 C8         -1.7235    3.4593   20.0002 C.2         1 UCN       0.1891
      5 O5         -2.1497    4.3974   20.6489 O.2         1 UCN      -0.3964
      6 C7         -0.9650    3.4746   18.8637 C.ar        1 UCN       0.0346
      7 C6         -0.3508    4.5019   18.1038 C.ar        1 UCN      -0.0017
      8 C5         -0.2294    5.8855   18.2581 C.ar        1 UCN      -0.0071
      9 C20         0.5398    6.3388   17.1776 C.ar        1 UCN       0.0681
     10 C1          0.8539    7.7087   17.0464 C.ar        1 UCN      -0.0404
     11 C2          0.3963    8.6227   18.0124 C.ar        1 UCN      -0.0732
     12 C3         -0.3687    8.1699   19.1040 C.ar        1 UCN      -0.0750
     13 C4         -0.6794    6.8021   19.2337 C.ar        1 UCN      -0.0685
     14 N3          0.8827    5.2933   16.3883 N.pl3       1 UCN      -0.2376
     15 C19         0.3586    4.1705   16.9305 C.ar        1 UCN       0.0952
     16 C18         0.5074    2.8201   16.5211 C.ar        1 UCN       0.0979
     17 N2          1.1860    2.2580   15.4777 N.pl3       1 UCN      -0.2292
     18 C17         1.1033    0.8987   15.6349 C.ar        1 UCN       0.0695
     19 C12         0.2992    0.6052   16.7472 C.ar        1 UCN      -0.0074
     20 C13        -0.0093   -0.7198   17.1171 C.ar        1 UCN      -0.0696
     21 C14         0.5278   -1.7830   16.3724 C.ar        1 UCN      -0.0759
     22 C15         1.3647   -1.5183   15.2749 C.ar        1 UCN      -0.0739
     23 C16         1.6516   -0.1885   14.9082 C.ar        1 UCN      -0.0408
     24 C11        -0.0599    1.8154   17.3203 C.ar        1 UCN       0.0037
     25 C10        -0.8015    2.1351   18.4795 C.ar        1 UCN       0.0127
     26 C21         1.8309    3.0007   14.3874 C.3         1 UCN       0.2020
     27 O4          1.3021    4.3401   14.2555 O.3         1 UCN      -0.3149
     28 C25         1.6539    5.3769   15.1792 C.3         1 UCN       0.1668
     29 C24         3.1896    5.4763   15.3888 C.3         1 UCN       0.0455
     30 C23         3.8569    4.0916   15.6222 C.3         1 UCN       0.0141
     31 N4          3.6024    3.5687   16.9934 N.4         1 UCN       0.2291
     32 C28         4.5139    4.0294   18.0592 C.3         1 UCN      -0.0445
     33 C22         3.3941    3.0889   14.5177 C.3         1 UCN       0.1556
     34 O6          3.9385    1.7721   14.7546 O.3         1 UCN      -0.3686
     35 C27         5.2263    1.4663   14.1957 C.3         1 UCN       0.0373
     36 C26         1.4284    2.4374   12.9813 C.3         1 UCN      -0.0059
     37 H1         -0.6528   -0.4577   19.8645 H           1 UCN       0.2154
     38 H2         -2.2555    0.6628   18.9978 H           1 UCN       0.1031
     39 H3         -2.5567    1.9909   21.0990 H           1 UCN       0.1889
     40 H4          1.4149    8.0428   16.2649 H           1 UCN       0.0539
     41 H5          0.6183    9.6171   17.9203 H           1 UCN       0.0568
     42 H6         -0.7013    8.8395   19.8027 H           1 UCN       0.0516
     43 H7         -1.2191    6.5042   20.0392 H           1 UCN       0.0576
     44 H8         -0.6247   -0.9244   17.9003 H           1 UCN       0.0566
     45 H9          0.3121   -2.7491   16.6301 H           1 UCN       0.0516
     46 H10         1.7614   -2.2938   14.7393 H           1 UCN       0.0561
     47 H11         2.2772   -0.0467   14.1231 H           1 UCN       0.0538
     48 H12         1.3444    6.2862   14.6583 H           1 UCN       0.0933
     49 H13         3.4133    6.1557   16.2137 H           1 UCN       0.0372
     50 H14         3.6273    5.9159   14.4870 H           1 UCN       0.0372
     51 H15         4.9375    4.2202   15.4956 H           1 UCN       0.0880
     52 H16         3.6524    2.5491   16.9623 H           1 UCN       0.2014
     53 H17         2.6589    3.8268   17.2735 H           1 UCN       0.2014
     54 H18         4.2015    3.5914   19.0052 H           1 UCN       0.0777
     55 H19         4.4831    5.1150   18.1577 H           1 UCN       0.0777
     56 H20         5.5357    3.7095   17.8497 H           1 UCN       0.0777
     57 H21         3.7686    3.4810   13.5626 H           1 UCN       0.0710
     58 H22         5.2201    1.5976   13.1108 H           1 UCN       0.0524
     59 H23         5.4509    0.4208   14.4112 H           1 UCN       0.0524
     60 H24         6.0057    2.0886   14.6382 H           1 UCN       0.0524
     61 H25         1.5944    3.1767   12.1917 H           1 UCN       0.0284
     62 H26         0.3705    2.1653   12.9682 H           1 UCN       0.0284
     63 H27         2.0156    1.5692   12.6968 H           1 UCN       0.0284
@<TRIPOS>BOND
     1     2     1   1
     2     2     3   1
     3     2    25   1
     4     3     4  am
     5     4     5   2
     6     4     6   1
     7     6     7  ar
     8    25     6  ar
     9     7     8   1
    10     7    15  ar
    11     8     9  ar
    12     8    13  ar
    13     9    10  ar
    14     9    14   1
    15    10    11  ar
    16    11    12  ar
    17    13    12  ar
    18    14    15   1
    19    14    28   1
    20    15    16  ar
    21    16    17   1
    22    16    24  ar
    23    17    18   1
    24    17    26   1
    25    18    19  ar
    26    18    23  ar
    27    19    20  ar
    28    19    24   1
    29    20    21  ar
    30    21    22  ar
    31    23    22  ar
    32    24    25  ar
    33    26    27   1
    34    26    33   1
    35    26    36   1
    36    27    28   1
    37    28    29   1
    38    29    30   1
    39    30    31   1
    40    33    30   1
    41    31    32   1
    42    33    34   1
    43    34    35   1
    44     1    37   1
    45     2    38   1
    46     3    39   1
    47    10    40   1
    48    11    41   1
    49    12    42   1
    50    13    43   1
    51    20    44   1
    52    21    45   1
    53    22    46   1
    54    23    47   1
    55    28    48   1
    56    29    49   1
    57    29    50   1
    58    30    51   1
    59    31    52   1
    60    31    53   1
    61    32    54   1
    62    32    55   1
    63    32    56   1
    64    33    57   1
    65    35    58   1
    66    35    59   1
    67    35    60   1
    68    36    61   1
    69    36    62   1
    70    36    63   1
@<TRIPOS>SUBSTRUCTURE
     1  UCN      2

