@<TRIPOS>MOLECULE
1o3f_ligand_007
    43    46
SMALL
GAST_HUCK
****
This file was generated by PARSER (from files_GN.cpp)

@<TRIPOS>ATOM
      1 C1         44.3985   -3.6030   27.4768 C.ar        1 MOL       0.0081
      2 C2         43.5004   -4.4552   28.1862 C.ar        1 MOL      -0.0716
      3 C3         43.1653   -4.2224   29.5376 C.ar        1 MOL      -0.0437
      4 C4         43.7377   -3.1273   30.1901 C.ar        1 MOL       0.0625
      5 C5         44.6291   -2.2827   29.5322 C.ar        1 MOL      -0.0269
      6 C6         44.9634   -2.5038   28.1804 C.ar        1 MOL      -0.0699
      7 C7         44.7099   -3.8392   26.1282 C.cat       1 MOL       0.2284
      8 N1         45.2240   -2.9440   25.3752 N.pl3       1 MOL      -0.2733
      9 N2         44.4943   -4.9706   25.5576 N.pl3       1 MOL      -0.2733
     10 N3         43.5823   -2.6848   31.4499 N.pl3       1 MOL      -0.2762
     11 CN4        45.0265   -1.3182   30.4460 C.2         1 MOL      -0.0577
     12 C8         44.3555   -1.6016   31.6367 C.2         1 MOL       0.0606
     13 C1'        44.3956   -0.8811   32.8460 C.ar        1 MOL       0.0381
     14 C2'        45.5222   -0.9886   33.6839 C.ar        1 MOL      -0.0591
     15 C3'        45.5302   -0.3693   34.9431 C.ar        1 MOL      -0.0712
     16 C4'        44.4164    0.3726   35.3640 C.ar        1 MOL      -0.0615
     17 C5'        43.2796    0.5401   34.5318 C.ar        1 MOL       0.0146
     18 C6'        43.2877   -0.1007   33.2587 C.ar        1 MOL       0.1121
     19 O6'        42.2679    0.0462   32.3723 O.3         1 MOL      -0.3267
     20 C1''       42.1735    1.3278   34.9946 C.ar        1 MOL      -0.0215
     21 C2''       40.8321    0.9136   34.7975 C.ar        1 MOL      -0.0570
     22 C3''       39.7495    1.6768   35.2710 C.ar        1 MOL      -0.0632
     23 C4''       39.9922    2.8599   35.9872 C.ar        1 MOL      -0.0635
     24 C5''       41.3082    3.2877   36.2137 C.ar        1 MOL      -0.0632
     25 C6''       42.3853    2.5382   35.7084 C.ar        1 MOL      -0.0570
     26 H1         43.0550   -5.2499   27.7223 H           1 MOL       0.0528
     27 H2         42.5144   -4.8389   30.0285 H           1 MOL       0.0539
     28 H3         45.6235   -1.8642   27.7359 H           1 MOL       0.0531
     29 H4         45.4186   -3.1358   24.4811 H           1 MOL       0.3180
     30 H5         45.4039   -2.0899   25.7107 H           1 MOL       0.3180
     31 H6         44.1314   -5.6787   26.0423 H           1 MOL       0.3180
     32 H7         44.7180   -5.0996   24.6601 H           1 MOL       0.3180
     33 H8         43.0072   -3.0910   32.1172 H           1 MOL       0.2230
     34 H9         45.6730   -0.5464   30.2791 H           1 MOL       0.0294
     35 H10        46.3334   -1.5403   33.3992 H           1 MOL       0.0593
     36 H11        46.3425   -0.4731   35.5577 H           1 MOL       0.0530
     37 H12        44.4552    0.7775   36.3045 H           1 MOL       0.0593
     38 H13        42.1477    1.0100   32.2693 H           1 MOL       0.2521
     39 H14        40.6095    0.0312   34.3241 H           1 MOL       0.0606
     40 H15        38.7925    1.3603   35.1041 H           1 MOL       0.0613
     41 H16        39.2025    3.4064   36.3464 H           1 MOL       0.0603
     42 H17        41.4865    4.1446   36.7430 H           1 MOL       0.0613
     43 H18        43.3338    2.8946   35.8725 H           1 MOL       0.0606
@<TRIPOS>BOND
     1     1     2  ar
     2     1     6  ar
     3     1     7   1
     4     2     3  ar
     5     3     4  ar
     6     4     5  ar
     7     4    10   1
     8     5     6  ar
     9     5    11   1
    10     7     8  ar
    11     7     9  ar
    12    10    12   1
    13    11    12   2
    14    12    13   1
    15    13    14  ar
    16    13    18  ar
    17    14    15  ar
    18    15    16  ar
    19    16    17  ar
    20    17    18  ar
    21    17    20   1
    22    18    19   1
    23    20    21  ar
    24    20    25  ar
    25    21    22  ar
    26    22    23  ar
    27    23    24  ar
    28    24    25  ar
    29     2    26   1
    30     3    27   1
    31     6    28   1
    32     8    29   1
    33     8    30   1
    34     9    31   1
    35     9    32   1
    36    10    33   1
    37    11    34   1
    38    14    35   1
    39    15    36   1
    40    16    37   1
    41    19    38   1
    42    21    39   1
    43    22    40   1
    44    23    41   1
    45    24    42   1
    46    25    43   1
@<TRIPOS>SUBSTRUCTURE
     1  MOL      1

