@<TRIPOS>MOLECULE
1o3f_ligand_002
    43    46
SMALL
GAST_HUCK
****
This file was generated by PARSER (from files_GN.cpp)

@<TRIPOS>ATOM
      1 C1         43.5987   -2.9323   26.1812 C.ar        1 MOL       0.0081
      2 C2         43.9495   -1.5511   26.2464 C.ar        1 MOL      -0.0716
      3 C3         43.5388   -0.7223   27.3139 C.ar        1 MOL      -0.0437
      4 C4         42.7604   -1.2809   28.3341 C.ar        1 MOL       0.0625
      5 C5         42.4270   -2.6336   28.3140 C.ar        1 MOL      -0.0269
      6 C6         42.8282   -3.4665   27.2572 C.ar        1 MOL      -0.0699
      7 C7         44.0019   -3.7383   25.0996 C.cat       1 MOL       0.2284
      8 N1         44.5608   -3.2639   24.0538 N.pl3       1 MOL      -0.2733
      9 N2         43.8487   -5.0085   25.0708 N.pl3       1 MOL      -0.2733
     10 N3         42.2297   -0.7210   29.4325 N.pl3       1 MOL      -0.2762
     11 CN4        41.6754   -2.8729   29.4603 C.2         1 MOL      -0.0577
     12 C8         41.5657   -1.6564   30.1367 C.2         1 MOL       0.0606
     13 C1'        40.8900   -1.4217   31.3528 C.ar        1 MOL       0.0381
     14 C2'        41.2999   -2.1222   32.5086 C.ar        1 MOL      -0.0591
     15 C3'        40.6707   -1.8858   33.7440 C.ar        1 MOL      -0.0712
     16 C4'        39.6274   -0.9486   33.8339 C.ar        1 MOL      -0.0615
     17 C5'        39.1944   -0.2453   32.6872 C.ar        1 MOL       0.0146
     18 C6'        39.8314   -0.4824   31.4419 C.ar        1 MOL       0.1121
     19 O6'        39.4290    0.2056   30.3407 O.3         1 MOL      -0.3267
     20 C1''       38.1337    0.6866   32.8055 C.ar        1 MOL      -0.0215
     21 C2''       38.3315    1.8985   33.5048 C.ar        1 MOL      -0.0570
     22 C3''       37.2817    2.8282   33.6315 C.ar        1 MOL      -0.0632
     23 C4''       36.0239    2.5505   33.0656 C.ar        1 MOL      -0.0635
     24 C5''       35.8154    1.3453   32.3721 C.ar        1 MOL      -0.0632
     25 C6''       36.8667    0.4160   32.2372 C.ar        1 MOL      -0.0570
     26 H1         44.5134   -1.1166   25.5113 H           1 MOL       0.0528
     27 H2         43.7958    0.2674   27.3388 H           1 MOL       0.0539
     28 H3         42.5329   -4.4471   27.2699 H           1 MOL       0.0531
     29 H4         44.8099   -3.8369   23.3565 H           1 MOL       0.3180
     30 H5         44.7326   -2.3471   23.9718 H           1 MOL       0.3180
     31 H6         43.4665   -5.4716   25.7904 H           1 MOL       0.3180
     32 H7         44.1460   -5.4866   24.3200 H           1 MOL       0.3180
     33 H8         42.3142    0.2142   29.6745 H           1 MOL       0.2230
     34 H9         41.2680   -3.7680   29.7402 H           1 MOL       0.0294
     35 H10        42.0599   -2.8078   32.4666 H           1 MOL       0.0593
     36 H11        40.9795   -2.3869   34.5796 H           1 MOL       0.0530
     37 H12        39.1744   -0.7970   34.7413 H           1 MOL       0.0593
     38 H13        38.8038   -0.4016   29.8904 H           1 MOL       0.2521
     39 H14        39.2421    2.1175   33.9167 H           1 MOL       0.0606
     40 H15        37.4335    3.7040   34.1339 H           1 MOL       0.0613
     41 H16        35.2625    3.2285   33.1585 H           1 MOL       0.0603
     42 H17        34.8999    1.1407   31.9650 H           1 MOL       0.0613
     43 H18        36.6946   -0.4577   31.7327 H           1 MOL       0.0606
@<TRIPOS>BOND
     1     1     2  ar
     2     1     6  ar
     3     1     7   1
     4     2     3  ar
     5     3     4  ar
     6     4     5  ar
     7     4    10   1
     8     5     6  ar
     9     5    11   1
    10     7     8  ar
    11     7     9  ar
    12    10    12   1
    13    11    12   2
    14    12    13   1
    15    13    14  ar
    16    13    18  ar
    17    14    15  ar
    18    15    16  ar
    19    16    17  ar
    20    17    18  ar
    21    17    20   1
    22    18    19   1
    23    20    21  ar
    24    20    25  ar
    25    21    22  ar
    26    22    23  ar
    27    23    24  ar
    28    24    25  ar
    29     2    26   1
    30     3    27   1
    31     6    28   1
    32     8    29   1
    33     8    30   1
    34     9    31   1
    35     9    32   1
    36    10    33   1
    37    11    34   1
    38    14    35   1
    39    15    36   1
    40    16    37   1
    41    19    38   1
    42    21    39   1
    43    22    40   1
    44    23    41   1
    45    24    42   1
    46    25    43   1
@<TRIPOS>SUBSTRUCTURE
     1  MOL      1

