@<TRIPOS>MOLECULE
1o3f_ligand_001
    43    46
SMALL
GAST_HUCK
****
This file was generated by PARSER (from files_GN.cpp)

@<TRIPOS>ATOM
      1 C1         44.0698   -3.1958   26.3853 C.ar        1 MOL       0.0081
      2 C2         43.7022   -1.8195   26.4336 C.ar        1 MOL      -0.0716
      3 C3         43.5284   -1.1497   27.6623 C.ar        1 MOL      -0.0437
      4 C4         43.7485   -1.8637   28.8453 C.ar        1 MOL       0.0625
      5 C5         44.1046   -3.2093   28.8230 C.ar        1 MOL      -0.0269
      6 C6         44.2626   -3.8945   27.6049 C.ar        1 MOL      -0.0699
      7 C7         44.2659   -3.8382   25.1665 C.cat       1 MOL       0.2284
      8 N1         44.7811   -3.2265   24.1704 N.pl3       1 MOL      -0.2733
      9 N2         43.9597   -5.0674   25.0037 N.pl3       1 MOL      -0.2733
     10 N3         43.6692   -1.4662   30.1254 N.pl3       1 MOL      -0.2762
     11 CN4        44.2326   -3.6210   30.1396 C.2         1 MOL      -0.0577
     12 C8         43.9534   -2.5062   30.9341 C.2         1 MOL       0.0606
     13 C1'        43.9556   -2.4537   32.3399 C.ar        1 MOL       0.0381
     14 C2'        43.1331   -3.3427   33.0619 C.ar        1 MOL      -0.0591
     15 C3'        43.0878   -3.2905   34.4652 C.ar        1 MOL      -0.0712
     16 C4'        43.8943   -2.3717   35.1559 C.ar        1 MOL      -0.0615
     17 C5'        44.7561   -1.4918   34.4588 C.ar        1 MOL       0.0146
     18 C6'        44.7546   -1.5152   33.0394 C.ar        1 MOL       0.1121
     19 O6'        45.5402   -0.6507   32.3371 O.3         1 MOL      -0.3267
     20 C1''       45.6273   -0.6392   35.1904 C.ar        1 MOL      -0.0215
     21 C2''       45.1238    0.2095   36.2056 C.ar        1 MOL      -0.0570
     22 C3''       45.9925    1.0229   36.9588 C.ar        1 MOL      -0.0632
     23 C4''       47.3776    0.9864   36.7141 C.ar        1 MOL      -0.0635
     24 C5''       47.8920    0.1489   35.7100 C.ar        1 MOL      -0.0632
     25 C6''       47.0236   -0.6555   34.9515 C.ar        1 MOL      -0.0570
     26 H1         43.5394   -1.2946   25.5712 H           1 MOL       0.0528
     27 H2         43.2575   -0.1664   27.6882 H           1 MOL       0.0539
     28 H3         44.5402   -4.8771   27.6217 H           1 MOL       0.0531
     29 H4         44.9203   -3.6742   23.3613 H           1 MOL       0.3180
     30 H5         45.0526   -2.3357   24.2549 H           1 MOL       0.3180
     31 H6         43.5891   -5.5630   25.7071 H           1 MOL       0.3180
     32 H7         44.1305   -5.4850   24.1849 H           1 MOL       0.3180
     33 H8         43.4325   -0.5757   30.4191 H           1 MOL       0.2230
     34 H9         44.5064   -4.5493   30.4664 H           1 MOL       0.0294
     35 H10        42.5403   -4.0176   32.5739 H           1 MOL       0.0593
     36 H11        42.4707   -3.9209   34.9829 H           1 MOL       0.0530
     37 H12        43.8637   -2.3783   36.1798 H           1 MOL       0.0593
     38 H13        45.0154    0.1783   32.2856 H           1 MOL       0.2521
     39 H14        44.1179    0.2455   36.4090 H           1 MOL       0.0606
     40 H15        45.6117    1.6382   37.6850 H           1 MOL       0.0613
     41 H16        48.0058    1.5637   37.2724 H           1 MOL       0.0603
     42 H17        48.9001    0.1172   35.5347 H           1 MOL       0.0613
     43 H18        47.4231   -1.2694   34.2367 H           1 MOL       0.0606
@<TRIPOS>BOND
     1     1     2  ar
     2     1     6  ar
     3     1     7   1
     4     2     3  ar
     5     3     4  ar
     6     4     5  ar
     7     4    10   1
     8     5     6  ar
     9     5    11   1
    10     7     8  ar
    11     7     9  ar
    12    10    12   1
    13    11    12   2
    14    12    13   1
    15    13    14  ar
    16    13    18  ar
    17    14    15  ar
    18    15    16  ar
    19    16    17  ar
    20    17    18  ar
    21    17    20   1
    22    18    19   1
    23    20    21  ar
    24    20    25  ar
    25    21    22  ar
    26    22    23  ar
    27    23    24  ar
    28    24    25  ar
    29     2    26   1
    30     3    27   1
    31     6    28   1
    32     8    29   1
    33     8    30   1
    34     9    31   1
    35     9    32   1
    36    10    33   1
    37    11    34   1
    38    14    35   1
    39    15    36   1
    40    16    37   1
    41    19    38   1
    42    21    39   1
    43    22    40   1
    44    23    41   1
    45    24    42   1
    46    25    43   1
@<TRIPOS>SUBSTRUCTURE
     1  MOL      1

