@<TRIPOS>MOLECULE
1o3f_ligand_005
    43    46
SMALL
GAST_HUCK
****
This file was generated by PARSER (from files_GN.cpp)

@<TRIPOS>ATOM
      1 C1         44.1045   -3.1352   26.0792 C.ar        1 MOL       0.0081
      2 C2         43.8636   -1.7280   26.0701 C.ar        1 MOL      -0.0716
      3 C3         43.7465   -0.9885   27.2674 C.ar        1 MOL      -0.0437
      4 C4         43.8756   -1.6644   28.4904 C.ar        1 MOL       0.0625
      5 C5         44.0984   -3.0377   28.5257 C.ar        1 MOL      -0.0269
      6 C6         44.2158   -3.7852   27.3405 C.ar        1 MOL      -0.0699
      7 C7         44.2325   -3.8592   24.8857 C.cat       1 MOL       0.2284
      8 N1         44.0042   -5.1132   24.8148 N.pl3       1 MOL      -0.2733
      9 N2         44.5836   -3.3062   23.7866 N.pl3       1 MOL      -0.2733
     10 N3         43.8254   -1.2093   29.7543 N.pl3       1 MOL      -0.2762
     11 CN4        44.1644   -3.4012   29.8656 C.2         1 MOL      -0.0577
     12 C8         43.9952   -2.2343   30.6151 C.2         1 MOL       0.0606
     13 C1'        43.9974   -2.1294   32.0289 C.ar        1 MOL       0.0381
     14 C2'        44.8665   -1.2062   32.6566 C.ar        1 MOL      -0.0591
     15 C3'        44.9139   -1.1028   34.0577 C.ar        1 MOL      -0.0712
     16 C4'        44.0767   -1.9065   34.8511 C.ar        1 MOL      -0.0615
     17 C5'        43.1794   -2.8202   34.2527 C.ar        1 MOL       0.0146
     18 C6'        43.1504   -2.9352   32.8379 C.ar        1 MOL       0.1121
     19 O6'        42.2871   -3.8183   32.2639 O.3         1 MOL      -0.3267
     20 C1''       42.3083   -3.5833   35.0778 C.ar        1 MOL      -0.0215
     21 C2''       42.8051   -4.6704   35.8305 C.ar        1 MOL      -0.0570
     22 C3''       41.9429   -5.4363   36.6404 C.ar        1 MOL      -0.0632
     23 C4''       40.5733   -5.1198   36.7056 C.ar        1 MOL      -0.0635
     24 C5''       40.0656   -4.0419   35.9583 C.ar        1 MOL      -0.0632
     25 C6''       40.9261   -3.2768   35.1456 C.ar        1 MOL      -0.0570
     26 H1         43.7767   -1.2173   25.1886 H           1 MOL       0.0528
     27 H2         43.5802    0.0204   27.2467 H           1 MOL       0.0539
     28 H3         44.3816   -4.7912   27.4144 H           1 MOL       0.0531
     29 H4         44.1096   -5.5618   24.0002 H           1 MOL       0.3180
     30 H5         43.7465   -5.5978   25.5719 H           1 MOL       0.3180
     31 H6         44.7711   -2.3919   23.7546 H           1 MOL       0.3180
     32 H7         44.6714   -3.8195   23.0105 H           1 MOL       0.3180
     33 H8         43.6814   -0.2847   29.9986 H           1 MOL       0.2230
     34 H9         44.3313   -4.3437   30.2253 H           1 MOL       0.0294
     35 H10        45.4956   -0.6175   32.1057 H           1 MOL       0.0593
     36 H11        45.5535   -0.4378   34.4999 H           1 MOL       0.0530
     37 H12        44.1149   -1.7995   35.8673 H           1 MOL       0.0593
     38 H13        41.5715   -3.2706   31.8756 H           1 MOL       0.2521
     39 H14        43.7942   -4.9275   35.7831 H           1 MOL       0.0606
     40 H15        42.3086   -6.2287   37.1755 H           1 MOL       0.0613
     41 H16        39.9492   -5.6767   37.2944 H           1 MOL       0.0603
     42 H17        39.0691   -3.8111   36.0086 H           1 MOL       0.0613
     43 H18        40.5379   -2.4915   34.6148 H           1 MOL       0.0606
@<TRIPOS>BOND
     1     1     2  ar
     2     1     6  ar
     3     1     7   1
     4     2     3  ar
     5     3     4  ar
     6     4     5  ar
     7     4    10   1
     8     5     6  ar
     9     5    11   1
    10     7     8  ar
    11     7     9  ar
    12    10    12   1
    13    11    12   2
    14    12    13   1
    15    13    14  ar
    16    13    18  ar
    17    14    15  ar
    18    15    16  ar
    19    16    17  ar
    20    17    18  ar
    21    17    20   1
    22    18    19   1
    23    20    21  ar
    24    20    25  ar
    25    21    22  ar
    26    22    23  ar
    27    23    24  ar
    28    24    25  ar
    29     2    26   1
    30     3    27   1
    31     6    28   1
    32     8    29   1
    33     8    30   1
    34     9    31   1
    35     9    32   1
    36    10    33   1
    37    11    34   1
    38    14    35   1
    39    15    36   1
    40    16    37   1
    41    19    38   1
    42    21    39   1
    43    22    40   1
    44    23    41   1
    45    24    42   1
    46    25    43   1
@<TRIPOS>SUBSTRUCTURE
     1  MOL      1

