@<TRIPOS>MOLECULE
1o3f_ligand_006
    43    46
SMALL
GAST_HUCK
****
This file was generated by PARSER (from files_GN.cpp)

@<TRIPOS>ATOM
      1 C1         42.9571   -3.6015   27.0574 C.ar        1 MOL       0.0081
      2 C2         42.3584   -4.6772   27.7785 C.ar        1 MOL      -0.0716
      3 C3         41.7643   -4.4908   29.0419 C.ar        1 MOL      -0.0437
      4 C4         41.7891   -3.2115   29.6119 C.ar        1 MOL       0.0625
      5 C5         42.3842   -2.1419   28.9447 C.ar        1 MOL      -0.0269
      6 C6         42.9547   -2.3138   27.6688 C.ar        1 MOL      -0.0699
      7 C7         43.5203   -3.8004   25.7863 C.cat       1 MOL       0.2284
      8 N1         43.7382   -2.8429   24.9704 N.pl3       1 MOL      -0.2733
      9 N2         43.8475   -4.9631   25.3572 N.pl3       1 MOL      -0.2733
     10 N3         41.3159   -2.7747   30.7900 N.pl3       1 MOL      -0.2762
     11 CN4        42.2717   -1.0387   29.7839 C.2         1 MOL      -0.0577
     12 C8         41.6019   -1.4641   30.9355 C.2         1 MOL       0.0606
     13 C1'        41.2680   -0.6962   32.0811 C.ar        1 MOL       0.0381
     14 C2'        39.9498   -0.7601   32.5826 C.ar        1 MOL      -0.0591
     15 C3'        39.5792   -0.0339   33.7247 C.ar        1 MOL      -0.0712
     16 C4'        40.5307    0.7475   34.3963 C.ar        1 MOL      -0.0615
     17 C5'        41.8652    0.8360   33.9303 C.ar        1 MOL       0.0146
     18 C6'        42.2162    0.1138   32.7558 C.ar        1 MOL       0.1121
     19 O6'        43.4761    0.1990   32.2541 O.3         1 MOL      -0.3267
     20 C1''       42.8134    1.6206   34.6562 C.ar        1 MOL      -0.0215
     21 C2''       42.4577    2.8891   35.1894 C.ar        1 MOL      -0.0570
     22 C3''       43.3860    3.6571   35.9179 C.ar        1 MOL      -0.0632
     23 C4''       44.6918    3.1756   36.1197 C.ar        1 MOL      -0.0635
     24 C5''       45.0611    1.9184   35.6116 C.ar        1 MOL      -0.0632
     25 C6''       44.1266    1.1422   34.8996 C.ar        1 MOL      -0.0570
     26 H1         42.3219   -5.6149   27.3805 H           1 MOL       0.0528
     27 H2         41.3283   -5.2673   29.5373 H           1 MOL       0.0539
     28 H3         43.3761   -1.5020   27.2147 H           1 MOL       0.0531
     29 H4         44.1106   -3.0191   24.1305 H           1 MOL       0.3180
     30 H5         43.5153   -1.9681   25.2012 H           1 MOL       0.3180
     31 H6         43.7242   -5.7165   25.8965 H           1 MOL       0.3180
     32 H7         44.2274   -5.0748   24.5046 H           1 MOL       0.3180
     33 H8         40.8701   -3.3285   31.4482 H           1 MOL       0.2230
     34 H9         42.6118   -0.0991   29.5877 H           1 MOL       0.0294
     35 H10        39.2366   -1.3233   32.1044 H           1 MOL       0.0593
     36 H11        38.6211   -0.0855   34.0745 H           1 MOL       0.0530
     37 H12        40.2376    1.2401   35.2448 H           1 MOL       0.0593
     38 H13        43.9462   -0.5987   32.6039 H           1 MOL       0.2521
     39 H14        41.5162    3.2671   35.0499 H           1 MOL       0.0606
     40 H15        43.1071    4.5628   36.3025 H           1 MOL       0.0613
     41 H16        45.3677    3.7341   36.6452 H           1 MOL       0.0603
     42 H17        46.0030    1.5600   35.7708 H           1 MOL       0.0613
     43 H18        44.4099    0.2147   34.5777 H           1 MOL       0.0606
@<TRIPOS>BOND
     1     1     2  ar
     2     1     6  ar
     3     1     7   1
     4     2     3  ar
     5     3     4  ar
     6     4     5  ar
     7     4    10   1
     8     5     6  ar
     9     5    11   1
    10     7     8  ar
    11     7     9  ar
    12    10    12   1
    13    11    12   2
    14    12    13   1
    15    13    14  ar
    16    13    18  ar
    17    14    15  ar
    18    15    16  ar
    19    16    17  ar
    20    17    18  ar
    21    17    20   1
    22    18    19   1
    23    20    21  ar
    24    20    25  ar
    25    21    22  ar
    26    22    23  ar
    27    23    24  ar
    28    24    25  ar
    29     2    26   1
    30     3    27   1
    31     6    28   1
    32     8    29   1
    33     8    30   1
    34     9    31   1
    35     9    32   1
    36    10    33   1
    37    11    34   1
    38    14    35   1
    39    15    36   1
    40    16    37   1
    41    19    38   1
    42    21    39   1
    43    22    40   1
    44    23    41   1
    45    24    42   1
    46    25    43   1
@<TRIPOS>SUBSTRUCTURE
     1  MOL      1

