@<TRIPOS>MOLECULE
1o3f_ligand_008
    43    46
SMALL
GAST_HUCK
****
This file was generated by PARSER (from files_GN.cpp)

@<TRIPOS>ATOM
      1 C1         44.1363   -1.9192   26.1604 C.ar        1 MOL       0.0081
      2 C2         44.8834   -1.3767   27.2436 C.ar        1 MOL      -0.0716
      3 C3         44.9845   -2.0576   28.4756 C.ar        1 MOL      -0.0437
      4 C4         44.3022   -3.2735   28.6287 C.ar        1 MOL       0.0625
      5 C5         43.5325   -3.7935   27.5928 C.ar        1 MOL      -0.0269
      6 C6         43.4568   -3.1508   26.3460 C.ar        1 MOL      -0.0699
      7 C7         44.0635   -1.2601   24.9427 C.cat       1 MOL       0.2284
      8 N1         44.2531   -1.8815   23.8420 N.pl3       1 MOL      -0.2733
      9 N2         43.7980   -0.0115   24.8862 N.pl3       1 MOL      -0.2733
     10 N3         44.2283   -4.1121   29.6732 N.pl3       1 MOL      -0.2762
     11 CN4        42.9504   -4.9567   28.0728 C.2         1 MOL      -0.0577
     12 C8         43.4179   -5.1510   29.3780 C.2         1 MOL       0.0606
     13 C1'        43.1134   -6.2378   30.2430 C.ar        1 MOL       0.0381
     14 C2'        41.8769   -6.9129   30.1110 C.ar        1 MOL      -0.0591
     15 C3'        41.5432   -7.9843   30.9527 C.ar        1 MOL      -0.0712
     16 C4'        42.4480   -8.4113   31.9347 C.ar        1 MOL      -0.0615
     17 C5'        43.6977   -7.7696   32.0957 C.ar        1 MOL       0.0146
     18 C6'        44.0148   -6.6712   31.2530 C.ar        1 MOL       0.1121
     19 O6'        45.1905   -6.0143   31.4430 O.3         1 MOL      -0.3267
     20 C1''       44.5897   -8.2277   33.1077 C.ar        1 MOL      -0.0215
     21 C2''       45.9268   -8.5811   32.7996 C.ar        1 MOL      -0.0570
     22 C3''       46.8076   -9.0102   33.8102 C.ar        1 MOL      -0.0632
     23 C4''       46.3587   -9.1067   35.1389 C.ar        1 MOL      -0.0635
     24 C5''       45.0281   -8.7836   35.4567 C.ar        1 MOL      -0.0632
     25 C6''       44.1504   -8.3473   34.4483 C.ar        1 MOL      -0.0570
     26 H1         45.3849   -0.4916   27.1350 H           1 MOL       0.0528
     27 H2         45.5380   -1.6737   29.2444 H           1 MOL       0.0539
     28 H3         42.8977   -3.5681   25.5980 H           1 MOL       0.0531
     29 H4         44.2075   -1.4232   23.0275 H           1 MOL       0.3180
     30 H5         44.4643   -2.7929   23.8476 H           1 MOL       0.3180
     31 H6         43.6332    0.4681   25.6716 H           1 MOL       0.3180
     32 H7         43.7467    0.4206   24.0582 H           1 MOL       0.3180
     33 H8         44.6837   -3.9828   30.5183 H           1 MOL       0.2230
     34 H9         42.3115   -5.5584   27.5488 H           1 MOL       0.0294
     35 H10        41.1874   -6.6131   29.4178 H           1 MOL       0.0593
     36 H11        40.6401   -8.4524   30.8509 H           1 MOL       0.0530
     37 H12        42.1866   -9.2015   32.5311 H           1 MOL       0.0593
     38 H13        45.8678   -6.5720   31.0086 H           1 MOL       0.2521
     39 H14        46.2687   -8.5389   31.8353 H           1 MOL       0.0606
     40 H15        47.7720   -9.2598   33.5759 H           1 MOL       0.0613
     41 H16        46.9964   -9.4185   35.8741 H           1 MOL       0.0603
     42 H17        44.7000   -8.8593   36.4213 H           1 MOL       0.0613
     43 H18        43.1907   -8.1012   34.7040 H           1 MOL       0.0606
@<TRIPOS>BOND
     1     1     2  ar
     2     1     6  ar
     3     1     7   1
     4     2     3  ar
     5     3     4  ar
     6     4     5  ar
     7     4    10   1
     8     5     6  ar
     9     5    11   1
    10     7     8  ar
    11     7     9  ar
    12    10    12   1
    13    11    12   2
    14    12    13   1
    15    13    14  ar
    16    13    18  ar
    17    14    15  ar
    18    15    16  ar
    19    16    17  ar
    20    17    18  ar
    21    17    20   1
    22    18    19   1
    23    20    21  ar
    24    20    25  ar
    25    21    22  ar
    26    22    23  ar
    27    23    24  ar
    28    24    25  ar
    29     2    26   1
    30     3    27   1
    31     6    28   1
    32     8    29   1
    33     8    30   1
    34     9    31   1
    35     9    32   1
    36    10    33   1
    37    11    34   1
    38    14    35   1
    39    15    36   1
    40    16    37   1
    41    19    38   1
    42    21    39   1
    43    22    40   1
    44    23    41   1
    45    24    42   1
    46    25    43   1
@<TRIPOS>SUBSTRUCTURE
     1  MOL      1

