@<TRIPOS>MOLECULE
1o5b_ligand_005
    21    22
SMALL
GAST_HUCK
****
This file was generated by PARSER (from files_GN.cpp)

@<TRIPOS>ATOM
      1 C0          8.3346   -0.4894   23.0600 C.cat       1 ESI       0.2505
      2 C1          8.3129    0.5785   23.9446 C.2         1 ESI       0.0861
      3 N1          8.5002   -0.3198   21.8041 N.pl3       1 ESI      -0.2704
      4 N2          8.1882   -1.6900   23.4707 N.pl3       1 ESI      -0.2704
      5 S2          8.1852    0.4643   25.6629 S.3         1 ESI      -0.0309
      6 C3          8.2271    2.1503   25.9826 C.ar        1 ESI       0.0403
      7 C4          8.3382    2.8183   24.7513 C.ar        1 ESI      -0.0155
      8 C5          8.3872    1.9501   23.6419 C.2         1 ESI      -0.0536
      9 C6          8.1678    2.8379   27.2050 C.ar        1 ESI      -0.0472
     10 C7          8.2137    4.2457   27.1842 C.ar        1 ESI      -0.0674
     11 C8          8.3208    4.9367   25.9587 C.ar        1 ESI      -0.0610
     12 C9          8.3871    4.2305   24.7380 C.ar        1 ESI       0.0037
     13 I9          8.5489    5.2979   22.9895 I           1 ESI      -0.0547
     14 H1          8.5120   -1.0573   21.2278 H           1 ESI       0.3182
     15 H2          8.6143    0.5399   21.4539 H           1 ESI       0.3182
     16 H3          8.0610   -1.8635   24.3813 H           1 ESI       0.3182
     17 H4          8.2041   -2.4011   22.8621 H           1 ESI       0.3182
     18 H5          8.4657    2.2960   22.6843 H           1 ESI       0.0425
     19 H6          8.0925    2.3282   28.0874 H           1 ESI       0.0593
     20 H7          8.1691    4.7698   28.0609 H           1 ESI       0.0573
     21 H8          8.3518    5.9575   25.9549 H           1 ESI       0.0587
@<TRIPOS>BOND
     1     1     2   1
     2     1     3  ar
     3     1     4  ar
     4     2     5   1
     5     2     8   2
     6     5     6   1
     7     6     7  ar
     8     6     9  ar
     9     7     8   1
    10     7    12  ar
    11     9    10  ar
    12    10    11  ar
    13    11    12  ar
    14    12    13   1
    15     3    14   1
    16     3    15   1
    17     4    16   1
    18     4    17   1
    19     8    18   1
    20     9    19   1
    21    10    20   1
    22    11    21   1
@<TRIPOS>SUBSTRUCTURE
     1  ESI      1

