@<TRIPOS>MOLECULE
1o5b_ligand_020
    21    22
SMALL
GAST_HUCK
****
This file was generated by PARSER (from files_GN.cpp)

@<TRIPOS>ATOM
      1 C0         13.2486   11.0108   20.2847 C.cat       1 ESI       0.2505
      2 C1         12.8363   10.1233   21.2670 C.2         1 ESI       0.0861
      3 N1         13.2059   12.2757   20.4575 N.pl3       1 ESI      -0.2704
      4 N2         13.6857   10.5908   19.1601 N.pl3       1 ESI      -0.2704
      5 S2         12.8384    8.4037   21.1268 S.3         1 ESI      -0.0309
      6 C3         12.2011    8.0717   22.6847 C.ar        1 ESI       0.0403
      7 C4         11.9852    9.2987   23.3338 C.ar        1 ESI      -0.0155
      8 C5         12.3351   10.4172   22.5488 C.2         1 ESI      -0.0536
      9 C6         11.9117    6.8392   23.2897 C.ar        1 ESI      -0.0472
     10 C7         11.3819    6.8435   24.5938 C.ar        1 ESI      -0.0674
     11 C8         11.1637    8.0625   25.2698 C.ar        1 ESI      -0.0610
     12 C9         11.4618    9.2943   24.6468 C.ar        1 ESI       0.0037
     13 I9         11.1157   11.0335   25.6864 I           1 ESI      -0.0547
     14 H1         13.4893   12.8520   19.7771 H           1 ESI       0.3182
     15 H2         12.8939   12.6323   21.2632 H           1 ESI       0.3182
     16 H3         13.7340    9.6730   18.9910 H           1 ESI       0.3182
     17 H4         13.9501   11.1931   18.4940 H           1 ESI       0.3182
     18 H5         12.2303   11.3751   22.8876 H           1 ESI       0.0425
     19 H6         12.0779    5.9610   22.7943 H           1 ESI       0.0593
     20 H7         11.1505    5.9587   25.0499 H           1 ESI       0.0573
     21 H8         10.7843    8.0505   26.2188 H           1 ESI       0.0587
@<TRIPOS>BOND
     1     1     2   1
     2     1     3  ar
     3     1     4  ar
     4     2     5   1
     5     2     8   2
     6     5     6   1
     7     6     7  ar
     8     6     9  ar
     9     7     8   1
    10     7    12  ar
    11     9    10  ar
    12    10    11  ar
    13    11    12  ar
    14    12    13   1
    15     3    14   1
    16     3    15   1
    17     4    16   1
    18     4    17   1
    19     8    18   1
    20     9    19   1
    21    10    20   1
    22    11    21   1
@<TRIPOS>SUBSTRUCTURE
     1  ESI      1

