@<TRIPOS>MOLECULE
1o5b_ligand_010
    21    22
SMALL
GAST_HUCK
****
This file was generated by PARSER (from files_GN.cpp)

@<TRIPOS>ATOM
      1 C0         13.6285    8.1406   21.5846 C.cat       1 ESI       0.2505
      2 C1         12.4075    7.7504   22.1120 C.2         1 ESI       0.0861
      3 N1         14.7032    7.4964   21.8377 N.pl3       1 ESI      -0.2704
      4 N2         13.7339    9.1595   20.8222 N.pl3       1 ESI      -0.2704
      5 S2         12.1514    6.4478   23.2136 S.3         1 ESI      -0.0309
      6 C3         10.4512    6.6333   23.3558 C.ar        1 ESI       0.0403
      7 C4         10.0646    7.7116   22.5425 C.ar        1 ESI      -0.0155
      8 C5         11.1438    8.3197   21.8696 C.2         1 ESI      -0.0536
      9 C6          9.5286    5.8983   24.1160 C.ar        1 ESI      -0.0472
     10 C7          8.1690    6.2586   24.0473 C.ar        1 ESI      -0.0674
     11 C8          7.7577    7.3350   23.2333 C.ar        1 ESI      -0.0610
     12 C9          8.6988    8.0686   22.4791 C.ar        1 ESI       0.0037
     13 I9          8.0280    9.6345   21.3287 I           1 ESI      -0.0547
     14 H1         15.5134    7.7742   21.4632 H           1 ESI       0.3182
     15 H2         14.6898    6.7404   22.3871 H           1 ESI       0.3182
     16 H3         12.9801    9.6693   20.6053 H           1 ESI       0.3182
     17 H4         14.5694    9.4046   20.4779 H           1 ESI       0.3182
     18 H5         11.0153    9.1151   21.2415 H           1 ESI       0.0425
     19 H6          9.8376    5.1216   24.7045 H           1 ESI       0.0593
     20 H7          7.4772    5.7373   24.5906 H           1 ESI       0.0573
     21 H8          6.7684    7.5858   23.1916 H           1 ESI       0.0587
@<TRIPOS>BOND
     1     1     2   1
     2     1     3  ar
     3     1     4  ar
     4     2     5   1
     5     2     8   2
     6     5     6   1
     7     6     7  ar
     8     6     9  ar
     9     7     8   1
    10     7    12  ar
    11     9    10  ar
    12    10    11  ar
    13    11    12  ar
    14    12    13   1
    15     3    14   1
    16     3    15   1
    17     4    16   1
    18     4    17   1
    19     8    18   1
    20     9    19   1
    21    10    20   1
    22    11    21   1
@<TRIPOS>SUBSTRUCTURE
     1  ESI      1

