@<TRIPOS>MOLECULE
1o5b_ligand_003
    21    22
SMALL
GAST_HUCK
****
This file was generated by PARSER (from files_GN.cpp)

@<TRIPOS>ATOM
      1 C0         14.7107    7.5483   22.7413 C.cat       1 ESI       0.2505
      2 C1         13.5755    7.5686   23.5358 C.2         1 ESI       0.0861
      3 N1         14.8104    6.7643   21.7375 N.pl3       1 ESI      -0.2704
      4 N2         15.7108    8.3100   22.9658 N.pl3       1 ESI      -0.2704
      5 S2         12.2021    6.5388   23.3599 S.3         1 ESI      -0.0309
      6 C3         11.3001    7.1798   24.6719 C.ar        1 ESI       0.0403
      7 C4         12.0604    8.2070   25.2568 C.ar        1 ESI      -0.0155
      8 C5         13.3070    8.4102   24.6297 C.2         1 ESI      -0.0536
      9 C6         10.0296    6.8218   25.1518 C.ar        1 ESI      -0.0472
     10 C7          9.5066    7.5297   26.2509 C.ar        1 ESI      -0.0674
     11 C8         10.2506    8.5683   26.8487 C.ar        1 ESI      -0.0610
     12 C9         11.5293    8.9106   26.3603 C.ar        1 ESI       0.0037
     13 I9         12.5617   10.4339   27.2782 I           1 ESI      -0.0547
     14 H1         15.5898    6.7783   21.2205 H           1 ESI       0.3182
     15 H2         14.1106    6.1892   21.5092 H           1 ESI       0.3182
     16 H3         15.7050    8.9016   23.6892 H           1 ESI       0.3182
     17 H4         16.4554    8.2753   22.3989 H           1 ESI       0.3182
     18 H5         13.9660    9.1231   24.9446 H           1 ESI       0.0425
     19 H6          9.4996    6.0680   24.7121 H           1 ESI       0.0593
     20 H7          8.5830    7.2878   26.6182 H           1 ESI       0.0573
     21 H8          9.8600    9.0744   27.6456 H           1 ESI       0.0587
@<TRIPOS>BOND
     1     1     2   1
     2     1     3  ar
     3     1     4  ar
     4     2     5   1
     5     2     8   2
     6     5     6   1
     7     6     7  ar
     8     6     9  ar
     9     7     8   1
    10     7    12  ar
    11     9    10  ar
    12    10    11  ar
    13    11    12  ar
    14    12    13   1
    15     3    14   1
    16     3    15   1
    17     4    16   1
    18     4    17   1
    19     8    18   1
    20     9    19   1
    21    10    20   1
    22    11    21   1
@<TRIPOS>SUBSTRUCTURE
     1  ESI      1

