@<TRIPOS>MOLECULE
1o5b_ligand_028
    21    22
SMALL
GAST_HUCK
****
This file was generated by PARSER (from files_GN.cpp)

@<TRIPOS>ATOM
      1 C0          7.1486    4.5061   25.6888 C.cat       1 ESI       0.2505
      2 C1          5.9294    5.1646   25.7375 C.2         1 ESI       0.0861
      3 N1          7.8476    4.4661   24.6193 N.pl3       1 ESI      -0.2704
      4 N2          7.6214    3.9116   26.7151 N.pl3       1 ESI      -0.2704
      5 S2          5.1390    5.9280   24.4074 S.3         1 ESI      -0.0309
      6 C3          3.7605    6.4729   25.2739 C.ar        1 ESI       0.0403
      7 C4          3.9058    6.0667   26.6110 C.ar        1 ESI      -0.0155
      8 C5          5.0942    5.3491   26.8552 C.2         1 ESI      -0.0536
      9 C6          2.6429    7.1961   24.8279 C.ar        1 ESI      -0.0472
     10 C7          1.6431    7.5272   25.7633 C.ar        1 ESI      -0.0674
     11 C8          1.7714    7.1326   27.1120 C.ar        1 ESI      -0.0610
     12 C9          2.8977    6.3996   27.5432 C.ar        1 ESI       0.0037
     13 I9          3.0188    5.8509   29.5203 I           1 ESI      -0.0547
     14 H1          8.6685    4.0160   24.6113 H           1 ESI       0.3182
     15 H2          7.5471    4.8878   23.8407 H           1 ESI       0.3182
     16 H3          7.1443    3.9111   27.5197 H           1 ESI       0.3182
     17 H4          8.4452    3.4707   26.6666 H           1 ESI       0.3182
     18 H5          5.3333    4.9930   27.7822 H           1 ESI       0.0425
     19 H6          2.5585    7.4755   23.8490 H           1 ESI       0.0593
     20 H7          0.8208    8.0559   25.4640 H           1 ESI       0.0573
     21 H8          1.0409    7.3796   27.7822 H           1 ESI       0.0587
@<TRIPOS>BOND
     1     1     2   1
     2     1     3  ar
     3     1     4  ar
     4     2     5   1
     5     2     8   2
     6     5     6   1
     7     6     7  ar
     8     6     9  ar
     9     7     8   1
    10     7    12  ar
    11     9    10  ar
    12    10    11  ar
    13    11    12  ar
    14    12    13   1
    15     3    14   1
    16     3    15   1
    17     4    16   1
    18     4    17   1
    19     8    18   1
    20     9    19   1
    21    10    20   1
    22    11    21   1
@<TRIPOS>SUBSTRUCTURE
     1  ESI      1

