@<TRIPOS>MOLECULE
1o5b_ligand_022
    21    22
SMALL
GAST_HUCK
****
This file was generated by PARSER (from files_GN.cpp)

@<TRIPOS>ATOM
      1 C0          2.1774    9.5221   22.8289 C.cat       1 ESI       0.2505
      2 C1          1.3781    9.8768   23.9041 C.2         1 ESI       0.0861
      3 N1          2.4603   10.3620   21.9085 N.pl3       1 ESI      -0.2704
      4 N2          2.6584    8.3451   22.7066 N.pl3       1 ESI      -0.2704
      5 S2          0.5994   11.4004   24.1262 S.3         1 ESI      -0.0309
      6 C3         -0.1673   11.0197   25.6138 C.ar        1 ESI       0.0403
      7 C4          0.1830    9.7032   25.9564 C.ar        1 ESI      -0.0155
      8 C5          1.0290    9.0853   25.0130 C.2         1 ESI      -0.0536
      9 C6         -1.0063   11.8059   26.4183 C.ar        1 ESI      -0.0472
     10 C7         -1.5051   11.2472   27.6103 C.ar        1 ESI      -0.0674
     11 C8         -1.1622    9.9281   27.9752 C.ar        1 ESI      -0.0610
     12 C9         -0.3202    9.1481   27.1542 C.ar        1 ESI       0.0037
     13 I9          0.1462    7.2369   27.7514 I           1 ESI      -0.0547
     14 H1          3.0004   10.1050   21.1896 H           1 ESI       0.3182
     15 H2          2.1318   11.2369   21.9494 H           1 ESI       0.3182
     16 H3          2.4747    7.6894   23.3472 H           1 ESI       0.3182
     17 H4          3.1962    8.1327   21.9703 H           1 ESI       0.3182
     18 H5          1.3615    8.1257   25.1257 H           1 ESI       0.0425
     19 H6         -1.2462   12.7611   26.1457 H           1 ESI       0.0593
     20 H7         -2.1164   11.8006   28.2140 H           1 ESI       0.0573
     21 H8         -1.5282    9.5355   28.8450 H           1 ESI       0.0587
@<TRIPOS>BOND
     1     1     2   1
     2     1     3  ar
     3     1     4  ar
     4     2     5   1
     5     2     8   2
     6     5     6   1
     7     6     7  ar
     8     6     9  ar
     9     7     8   1
    10     7    12  ar
    11     9    10  ar
    12    10    11  ar
    13    11    12  ar
    14    12    13   1
    15     3    14   1
    16     3    15   1
    17     4    16   1
    18     4    17   1
    19     8    18   1
    20     9    19   1
    21    10    20   1
    22    11    21   1
@<TRIPOS>SUBSTRUCTURE
     1  ESI      1

