@<TRIPOS>MOLECULE
1o5b_ligand_021
    21    22
SMALL
GAST_HUCK
****
This file was generated by PARSER (from files_GN.cpp)

@<TRIPOS>ATOM
      1 C0         10.1748    1.4007   23.2741 C.cat       1 ESI       0.2505
      2 C1         10.2277    2.7859   23.2814 C.2         1 ESI       0.0861
      3 N1         11.2084    0.6921   23.5193 N.pl3       1 ESI      -0.2704
      4 N2          9.0908    0.7705   23.0294 N.pl3       1 ESI      -0.2704
      5 S2         11.6607    3.7379   23.4148 S.3         1 ESI      -0.0309
      6 C3         10.8901    5.2703   23.3600 C.ar        1 ESI       0.0403
      7 C4          9.5083    5.0548   23.2287 C.ar        1 ESI      -0.0155
      8 C5          9.1543    3.6908   23.1832 C.2         1 ESI      -0.0536
      9 C6         11.4460    6.5576   23.4154 C.ar        1 ESI      -0.0472
     10 C7         10.5789    7.6646   23.3407 C.ar        1 ESI      -0.0674
     11 C8          9.1873    7.4716   23.2151 C.ar        1 ESI      -0.0610
     12 C9          8.6437    6.1704   23.1602 C.ar        1 ESI       0.0037
     13 I9          6.6053    5.9646   22.9996 I           1 ESI      -0.0547
     14 H1         11.1457   -0.2397   23.5153 H           1 ESI       0.3182
     15 H2         12.0260    1.0940   23.7250 H           1 ESI       0.3182
     16 H3          8.3028    1.2366   22.8431 H           1 ESI       0.3182
     17 H4          9.0808   -0.1647   23.0309 H           1 ESI       0.3182
     18 H5          8.1845    3.3812   23.0935 H           1 ESI       0.0425
     19 H6         12.4547    6.6882   23.5072 H           1 ESI       0.0593
     20 H7         10.9590    8.6124   23.3841 H           1 ESI       0.0573
     21 H8          8.5678    8.2831   23.1692 H           1 ESI       0.0587
@<TRIPOS>BOND
     1     1     2   1
     2     1     3  ar
     3     1     4  ar
     4     2     5   1
     5     2     8   2
     6     5     6   1
     7     6     7  ar
     8     6     9  ar
     9     7     8   1
    10     7    12  ar
    11     9    10  ar
    12    10    11  ar
    13    11    12  ar
    14    12    13   1
    15     3    14   1
    16     3    15   1
    17     4    16   1
    18     4    17   1
    19     8    18   1
    20     9    19   1
    21    10    20   1
    22    11    21   1
@<TRIPOS>SUBSTRUCTURE
     1  ESI      1

