@<TRIPOS>MOLECULE
1o5b_ligand_015
    21    22
SMALL
GAST_HUCK
****
This file was generated by PARSER (from files_GN.cpp)

@<TRIPOS>ATOM
      1 C0         13.1746   10.6544   20.1631 C.cat       1 ESI       0.2505
      2 C1         13.4282   10.4196   21.5063 C.2         1 ESI       0.0861
      3 N1         14.0880   11.0564   19.3656 N.pl3       1 ESI      -0.2704
      4 N2         12.0055   10.4811   19.6785 N.pl3       1 ESI      -0.2704
      5 S2         12.2845    9.8288   22.6557 S.3         1 ESI      -0.0309
      6 C3         13.3357    9.8394   24.0122 C.ar        1 ESI       0.0403
      7 C4         14.5894   10.3069   23.5836 C.ar        1 ESI      -0.0155
      8 C5         14.6314   10.6179   22.2085 C.2         1 ESI      -0.0536
      9 C6         13.0847    9.4745   25.3441 C.ar        1 ESI      -0.0472
     10 C7         14.1331    9.5882   26.2772 C.ar        1 ESI      -0.0674
     11 C8         15.3986   10.0613   25.8707 C.ar        1 ESI      -0.0610
     12 C9         15.6361   10.4201   24.5262 C.ar        1 ESI       0.0037
     13 I9         17.5038   11.1015   24.0049 I           1 ESI      -0.0547
     14 H1         13.8937   11.2095   18.4630 H           1 ESI       0.3182
     15 H2         14.9579   11.1980   19.6772 H           1 ESI       0.3182
     16 H3         11.3088   10.1881   20.2293 H           1 ESI       0.3182
     17 H4         11.8304   10.6542   18.7762 H           1 ESI       0.3182
     18 H5         15.4761   10.9700   21.7550 H           1 ESI       0.0425
     19 H6         12.1633    9.1367   25.6290 H           1 ESI       0.0593
     20 H7         13.9756    9.3288   27.2538 H           1 ESI       0.0573
     21 H8         16.1508   10.1413   26.5576 H           1 ESI       0.0587
@<TRIPOS>BOND
     1     1     2   1
     2     1     3  ar
     3     1     4  ar
     4     2     5   1
     5     2     8   2
     6     5     6   1
     7     6     7  ar
     8     6     9  ar
     9     7     8   1
    10     7    12  ar
    11     9    10  ar
    12    10    11  ar
    13    11    12  ar
    14    12    13   1
    15     3    14   1
    16     3    15   1
    17     4    16   1
    18     4    17   1
    19     8    18   1
    20     9    19   1
    21    10    20   1
    22    11    21   1
@<TRIPOS>SUBSTRUCTURE
     1  ESI      1

