@<TRIPOS>MOLECULE
1o5b_ligand_025
    21    22
SMALL
GAST_HUCK
****
This file was generated by PARSER (from files_GN.cpp)

@<TRIPOS>ATOM
      1 C0         13.3416    7.6358   21.5907 C.cat       1 ESI       0.2505
      2 C1         13.0789    8.8812   21.0347 C.2         1 ESI       0.0861
      3 N1         14.5334    7.1783   21.6721 N.pl3       1 ESI      -0.2704
      4 N2         12.3888    6.8973   22.0126 N.pl3       1 ESI      -0.2704
      5 S2         14.2407    9.9468   20.3306 S.3         1 ESI      -0.0309
      6 C3         13.1400   11.1900   19.8911 C.ar        1 ESI       0.0403
      7 C4         11.8544   10.7862   20.2864 C.ar        1 ESI      -0.0155
      8 C5         11.8318    9.5183   20.9006 C.2         1 ESI      -0.0536
      9 C6         13.3796   12.4222   19.2619 C.ar        1 ESI      -0.0472
     10 C7         12.2874   13.2799   19.0314 C.ar        1 ESI      -0.0674
     11 C8         10.9876   12.8970   19.4252 C.ar        1 ESI      -0.0610
     12 C9         10.7608   11.6517   20.0505 C.ar        1 ESI       0.0037
     13 I9          8.8405   11.1589   20.5939 I           1 ESI      -0.0547
     14 H1         14.6855    6.3406   22.0570 H           1 ESI       0.3182
     15 H2         15.2624    7.6698   21.3472 H           1 ESI       0.3182
     16 H3         11.5097    7.2131   21.9651 H           1 ESI       0.3182
     17 H4         12.5343    6.0199   22.3063 H           1 ESI       0.3182
     18 H5         10.9638    9.0960   21.2377 H           1 ESI       0.0425
     19 H6         14.3259   12.6904   18.9837 H           1 ESI       0.0593
     20 H7         12.4362   14.1853   18.5786 H           1 ESI       0.0573
     21 H8         10.2032   13.5290   19.2543 H           1 ESI       0.0587
@<TRIPOS>BOND
     1     1     2   1
     2     1     3  ar
     3     1     4  ar
     4     2     5   1
     5     2     8   2
     6     5     6   1
     7     6     7  ar
     8     6     9  ar
     9     7     8   1
    10     7    12  ar
    11     9    10  ar
    12    10    11  ar
    13    11    12  ar
    14    12    13   1
    15     3    14   1
    16     3    15   1
    17     4    16   1
    18     4    17   1
    19     8    18   1
    20     9    19   1
    21    10    20   1
    22    11    21   1
@<TRIPOS>SUBSTRUCTURE
     1  ESI      1

