@<TRIPOS>MOLECULE
1o5b_ligand_023
    21    22
SMALL
GAST_HUCK
****
This file was generated by PARSER (from files_GN.cpp)

@<TRIPOS>ATOM
      1 C0          2.9202    8.4646   23.4308 C.cat       1 ESI       0.2505
      2 C1          2.3555    8.0262   24.6177 C.2         1 ESI       0.0861
      3 N1          3.8278    7.7814   22.8445 N.pl3       1 ESI      -0.2704
      4 N2          2.5630    9.5583   22.8753 N.pl3       1 ESI      -0.2704
      5 S2          2.8279    6.6222   25.5039 S.3         1 ESI      -0.0309
      6 C3          1.6833    6.7880   26.7714 C.ar        1 ESI       0.0403
      7 C4          0.9289    7.9467   26.5199 C.ar        1 ESI      -0.0155
      8 C5          1.3053    8.6183   25.3396 C.2         1 ESI      -0.0536
      9 C6          1.4584    5.9739   27.8944 C.ar        1 ESI      -0.0472
     10 C7          0.4453    6.3466   28.7954 C.ar        1 ESI      -0.0674
     11 C8         -0.3209    7.5097   28.5692 C.ar        1 ESI      -0.0610
     12 C9         -0.0848    8.3148   27.4346 C.ar        1 ESI       0.0037
     13 I9         -1.2193   10.0083   27.1796 I           1 ESI      -0.0547
     14 H1          4.2085    8.0846   22.0455 H           1 ESI       0.3182
     15 H2          4.1172    6.9708   23.2147 H           1 ESI       0.3182
     16 H3          1.9033   10.0923   23.2672 H           1 ESI       0.3182
     17 H4          2.9632    9.8309   22.0764 H           1 ESI       0.3182
     18 H5          0.8436    9.4744   25.0288 H           1 ESI       0.0425
     19 H6          2.0163    5.1305   28.0479 H           1 ESI       0.0593
     20 H7          0.2641    5.7721   29.6231 H           1 ESI       0.0573
     21 H8         -1.0479    7.7733   29.2345 H           1 ESI       0.0587
@<TRIPOS>BOND
     1     1     2   1
     2     1     3  ar
     3     1     4  ar
     4     2     5   1
     5     2     8   2
     6     5     6   1
     7     6     7  ar
     8     6     9  ar
     9     7     8   1
    10     7    12  ar
    11     9    10  ar
    12    10    11  ar
    13    11    12  ar
    14    12    13   1
    15     3    14   1
    16     3    15   1
    17     4    16   1
    18     4    17   1
    19     8    18   1
    20     9    19   1
    21    10    20   1
    22    11    21   1
@<TRIPOS>SUBSTRUCTURE
     1  ESI      1

