@<TRIPOS>MOLECULE
1o5b_ligand_031
    21    22
SMALL
GAST_HUCK
****
This file was generated by PARSER (from files_GN.cpp)

@<TRIPOS>ATOM
      1 C0         11.7717   10.6728   19.8508 C.cat       1 ESI       0.2505
      2 C1         10.4893   10.5708   20.3675 C.2         1 ESI       0.0861
      3 N1         12.6122    9.7135   19.9347 N.pl3       1 ESI      -0.2704
      4 N2         12.1676   11.7376   19.2677 N.pl3       1 ESI      -0.2704
      5 S2          9.2421   11.7549   20.2204 S.3         1 ESI      -0.0309
      6 C3          8.0346   10.8838   21.0740 C.ar        1 ESI       0.0403
      7 C4          8.5920    9.6604   21.4831 C.ar        1 ESI      -0.0155
      8 C5          9.9386    9.5025   21.0984 C.2         1 ESI      -0.0536
      9 C6          6.7108   11.2403   21.3710 C.ar        1 ESI      -0.0472
     10 C7          5.9226   10.3336   22.1048 C.ar        1 ESI      -0.0674
     11 C8          6.4616    9.0988   22.5258 C.ar        1 ESI      -0.0610
     12 C9          7.7935    8.7510   22.2149 C.ar        1 ESI       0.0037
     13 I9          8.5181    6.9335   22.8446 I           1 ESI      -0.0547
     14 H1         13.4720    9.8113   19.5804 H           1 ESI       0.3182
     15 H2         12.3736    8.9104   20.3475 H           1 ESI       0.3182
     16 H3         11.5920   12.4678   19.1785 H           1 ESI       0.3182
     17 H4         13.0341   11.7912   18.9212 H           1 ESI       0.3182
     18 H5         10.4706    8.6628   21.3173 H           1 ESI       0.0425
     19 H6          6.3293   12.1369   21.0662 H           1 ESI       0.0593
     20 H7          4.9565   10.5736   22.3368 H           1 ESI       0.0573
     21 H8          5.8790    8.4532   23.0599 H           1 ESI       0.0587
@<TRIPOS>BOND
     1     1     2   1
     2     1     3  ar
     3     1     4  ar
     4     2     5   1
     5     2     8   2
     6     5     6   1
     7     6     7  ar
     8     6     9  ar
     9     7     8   1
    10     7    12  ar
    11     9    10  ar
    12    10    11  ar
    13    11    12  ar
    14    12    13   1
    15     3    14   1
    16     3    15   1
    17     4    16   1
    18     4    17   1
    19     8    18   1
    20     9    19   1
    21    10    20   1
    22    11    21   1
@<TRIPOS>SUBSTRUCTURE
     1  ESI      1

