@<TRIPOS>MOLECULE
1o5b_ligand_002
    21    22
SMALL
GAST_HUCK
****
This file was generated by PARSER (from files_GN.cpp)

@<TRIPOS>ATOM
      1 C0         14.6746    7.7119   22.7838 C.cat       1 ESI       0.2505
      2 C1         13.5653    7.7741   23.6108 C.2         1 ESI       0.0861
      3 N1         14.7453    6.9085   21.7951 N.pl3       1 ESI      -0.2704
      4 N2         15.6899    8.4639   22.9711 N.pl3       1 ESI      -0.2704
      5 S2         13.3524    8.8563   24.9361 S.3         1 ESI      -0.0309
      6 C3         11.8122    8.2749   25.4211 C.ar        1 ESI       0.0403
      7 C4         11.4524    7.2239   24.5603 C.ar        1 ESI      -0.0155
      8 C5         12.4144    6.9648   23.5635 C.2         1 ESI      -0.0536
      9 C6         10.9859    8.7000   26.4713 C.ar        1 ESI      -0.0472
     10 C7          9.7552    8.0427   26.6600 C.ar        1 ESI      -0.0674
     11 C8          9.3793    6.9770   25.8156 C.ar        1 ESI      -0.0610
     12 C9         10.2238    6.5568   24.7673 C.ar        1 ESI       0.0037
     13 I9          9.6148    4.9844   23.5908 I           1 ESI      -0.0547
     14 H1         15.5196    6.8994   21.2708 H           1 ESI       0.3182
     15 H2         14.0311    6.3445   21.5821 H           1 ESI       0.3182
     16 H3         15.7060    9.0767   23.6764 H           1 ESI       0.3182
     17 H4         16.4192    8.4052   22.3864 H           1 ESI       0.3182
     18 H5         12.2967    6.2230   22.8701 H           1 ESI       0.0425
     19 H6         11.2667    9.4714   27.0781 H           1 ESI       0.0593
     20 H7          9.1322    8.3389   27.4148 H           1 ESI       0.0573
     21 H8          8.4846    6.5071   25.9658 H           1 ESI       0.0587
@<TRIPOS>BOND
     1     1     2   1
     2     1     3  ar
     3     1     4  ar
     4     2     5   1
     5     2     8   2
     6     5     6   1
     7     6     7  ar
     8     6     9  ar
     9     7     8   1
    10     7    12  ar
    11     9    10  ar
    12    10    11  ar
    13    11    12  ar
    14    12    13   1
    15     3    14   1
    16     3    15   1
    17     4    16   1
    18     4    17   1
    19     8    18   1
    20     9    19   1
    21    10    20   1
    22    11    21   1
@<TRIPOS>SUBSTRUCTURE
     1  ESI      1

