@<TRIPOS>MOLECULE
1o5b_ligand_008
    21    22
SMALL
GAST_HUCK
****
This file was generated by PARSER (from files_GN.cpp)

@<TRIPOS>ATOM
      1 C0         13.6230   10.1444   19.9773 C.cat       1 ESI       0.2505
      2 C1         12.8736    9.4690   20.9283 C.2         1 ESI       0.0861
      3 N1         14.9002   10.1176   20.0038 N.pl3       1 ESI      -0.2704
      4 N2         13.0833   10.8167   19.0341 N.pl3       1 ESI      -0.2704
      5 S2         13.5120    8.4862   22.1946 S.3         1 ESI      -0.0309
      6 C3         12.0061    8.0489   22.8908 C.ar        1 ESI       0.0403
      7 C4         10.9883    8.6659   22.1435 C.ar        1 ESI      -0.0155
      8 C5         11.4744    9.4424   21.0699 C.2         1 ESI      -0.0536
      9 C6         11.7349    7.2349   24.0014 C.ar        1 ESI      -0.0472
     10 C7         10.3915    7.0334   24.3709 C.ar        1 ESI      -0.0674
     11 C8          9.3529    7.6466   23.6389 C.ar        1 ESI      -0.0610
     12 C9          9.6423    8.4660   22.5264 C.ar        1 ESI       0.0037
     13 I9          8.0792    9.3484   21.5241 I           1 ESI      -0.0547
     14 H1         15.3929   10.5830   19.3594 H           1 ESI       0.3182
     15 H2         15.3515    9.6371   20.6668 H           1 ESI       0.3182
     16 H3         12.1531   10.8637   18.9450 H           1 ESI       0.3182
     17 H4         13.6210   11.2513   18.4031 H           1 ESI       0.3182
     18 H5         10.8521    9.9556   20.4435 H           1 ESI       0.0425
     19 H6         12.4942    6.7992   24.5296 H           1 ESI       0.0593
     20 H7         10.1688    6.4449   25.1772 H           1 ESI       0.0573
     21 H8          8.3822    7.4990   23.9224 H           1 ESI       0.0587
@<TRIPOS>BOND
     1     1     2   1
     2     1     3  ar
     3     1     4  ar
     4     2     5   1
     5     2     8   2
     6     5     6   1
     7     6     7  ar
     8     6     9  ar
     9     7     8   1
    10     7    12  ar
    11     9    10  ar
    12    10    11  ar
    13    11    12  ar
    14    12    13   1
    15     3    14   1
    16     3    15   1
    17     4    16   1
    18     4    17   1
    19     8    18   1
    20     9    19   1
    21    10    20   1
    22    11    21   1
@<TRIPOS>SUBSTRUCTURE
     1  ESI      1

