@<TRIPOS>MOLECULE
1o5b_ligand_027
    21    22
SMALL
GAST_HUCK
****
This file was generated by PARSER (from files_GN.cpp)

@<TRIPOS>ATOM
      1 C0          8.2234   11.6707   18.9863 C.cat       1 ESI       0.2505
      2 C1          8.9353   11.0646   20.0089 C.2         1 ESI       0.0861
      3 N1          8.6216   12.7621   18.4540 N.pl3       1 ESI      -0.2704
      4 N2          7.1421   11.1650   18.5327 N.pl3       1 ESI      -0.2704
      5 S2         10.3571   11.6875   20.7636 S.3         1 ESI      -0.0309
      6 C3         10.5842   10.3909   21.8657 C.ar        1 ESI       0.0403
      7 C4          9.5562    9.4569   21.6526 C.ar        1 ESI      -0.0155
      8 C5          8.6546    9.8385   20.6385 C.2         1 ESI      -0.0536
      9 C6         11.5800   10.1997   22.8367 C.ar        1 ESI      -0.0472
     10 C7         11.5408    9.0258   23.6136 C.ar        1 ESI      -0.0674
     11 C8         10.5202    8.0730   23.4131 C.ar        1 ESI      -0.0610
     12 C9          9.5236    8.2805   22.4349 C.ar        1 ESI       0.0037
     13 I9          8.0614    6.8539   22.2050 I           1 ESI      -0.0547
     14 H1          8.1260   13.1530   17.7652 H           1 ESI       0.3182
     15 H2          9.4082   13.1734   18.7468 H           1 ESI       0.3182
     16 H3          6.8084   10.3696   18.8911 H           1 ESI       0.3182
     17 H4          6.6744   11.5886   17.8423 H           1 ESI       0.3182
     18 H5          7.8609    9.2546   20.3696 H           1 ESI       0.0425
     19 H6         12.3154   10.8952   22.9757 H           1 ESI       0.0593
     20 H7         12.2565    8.8632   24.3257 H           1 ESI       0.0573
     21 H8         10.5038    7.2248   23.9826 H           1 ESI       0.0587
@<TRIPOS>BOND
     1     1     2   1
     2     1     3  ar
     3     1     4  ar
     4     2     5   1
     5     2     8   2
     6     5     6   1
     7     6     7  ar
     8     6     9  ar
     9     7     8   1
    10     7    12  ar
    11     9    10  ar
    12    10    11  ar
    13    11    12  ar
    14    12    13   1
    15     3    14   1
    16     3    15   1
    17     4    16   1
    18     4    17   1
    19     8    18   1
    20     9    19   1
    21    10    20   1
    22    11    21   1
@<TRIPOS>SUBSTRUCTURE
     1  ESI      1

