@<TRIPOS>MOLECULE
1os0_ligand_043
    65    67
SMALL
GAST_HUCK
****
This file was generated by PARSER (from files_GN.cpp)

@<TRIPOS>ATOM
      1 N          33.9238   42.4736   -5.9706 N.4         1 MOL       0.2351
      2 CA         35.1884   41.7519   -6.2208 C.3         1 MOL       0.0466
      3 P          34.9601   40.6586   -7.4715 P.3         1 MOL       0.0403
      4 O1P        34.8308   41.4339   -8.6808 O.co2       1 MOL      -0.6153
      5 O2P        36.1629   39.8886   -7.6753 O.co2       1 MOL      -0.6153
      6 CB         35.7286   41.1283   -4.8954 C.3         1 MOL       0.0407
      7 CG         35.8571   42.1228   -3.7867 C.ar        1 MOL      -0.0360
      8 CD1        36.8670   43.1158   -3.8194 C.ar        1 MOL      -0.0601
      9 CD2        34.9607   42.1121   -2.6917 C.ar        1 MOL      -0.0601
     10 CE1        36.9594   44.0842   -2.8000 C.ar        1 MOL      -0.0686
     11 CE2        35.0575   43.0744   -1.6685 C.ar        1 MOL      -0.0686
     12 CZ         36.0520   44.0663   -1.7266 C.ar        1 MOL      -0.0687
     13 CM         33.6534   39.6296   -7.2803 C.3         1 MOL       0.0402
     14 CA         32.9727   39.0330   -8.5660 C.3         1 MOL       0.0742
     15 CB         31.9234   37.9371   -8.1617 C.3         1 MOL       0.0021
     16 CG         30.7687   37.6994   -9.0738 C.ar        1 MOL      -0.0405
     17 CD1        30.9543   37.6055  -10.4728 C.ar        1 MOL      -0.0602
     18 CD2        29.4557   37.5458   -8.5577 C.ar        1 MOL      -0.0602
     19 CE1        29.8610   37.3806  -11.3336 C.ar        1 MOL      -0.0686
     20 CE2        28.3631   37.3002   -9.4112 C.ar        1 MOL      -0.0686
     21 CZ         28.5658   37.2131  -10.8025 C.ar        1 MOL      -0.0687
     22 C          32.3925   40.0723   -9.4242 C.2         1 MOL       0.1844
     23 O          31.3611   40.6283   -9.0685 O.2         1 MOL      -0.3964
     24 N          32.9934   40.4138  -10.5646 N.am        1 MOL      -0.2692
     25 CA         32.5715   41.4143  -11.5076 C.3         1 MOL       0.1038
     26 C          32.4303   40.7764  -12.8380 C.2         1 MOL       0.0621
     27 O          31.2137   40.4254  -13.3213 O.co2       1 MOL      -0.5664
     28 CB         33.6133   42.5844  -11.5205 C.3         1 MOL       0.0159
     29 CG         33.0171   43.9422  -11.6511 C.ar        1 MOL      -0.0392
     30 CD1        32.1202   44.4149  -10.6609 C.ar        1 MOL      -0.0602
     31 CD2        33.3825   44.8116  -12.7069 C.ar        1 MOL      -0.0602
     32 CE1        31.5889   45.7155  -10.7349 C.ar        1 MOL      -0.0686
     33 CE2        32.8581   46.1175  -12.7728 C.ar        1 MOL      -0.0686
     34 CZ         31.9612   46.5694  -11.7874 C.ar        1 MOL      -0.0687
     35 OXT        33.5187   40.4661  -13.5802 O.co2       1 MOL      -0.5664
     36 H1         34.0728   43.2149   -5.2822 H           1 MOL       0.2014
     37 H2         33.2245   41.8258   -5.5956 H           1 MOL       0.2014
     38 H3         33.5761   42.8857   -6.8416 H           1 MOL       0.2014
     39 H4         35.9164   42.4860   -6.5762 H           1 MOL       0.1089
     40 H5         36.7141   40.6851   -5.0708 H           1 MOL       0.0499
     41 H6         35.0631   40.3094   -4.5980 H           1 MOL       0.0499
     42 H7         37.5376   43.1501   -4.5920 H           1 MOL       0.0557
     43 H8         34.2196   41.4116   -2.6359 H           1 MOL       0.0557
     44 H9         37.6823   44.8040   -2.8444 H           1 MOL       0.0599
     45 H10        34.3997   43.0543   -0.8889 H           1 MOL       0.0599
     46 H11        36.1150   44.7694   -0.9886 H           1 MOL       0.0559
     47 H12        32.8844   40.1496   -6.7090 H           1 MOL       0.0496
     48 H13        34.0025   38.8051   -6.6526 H           1 MOL       0.0496
     49 H14        33.7596   38.5169   -9.1280 H           1 MOL       0.0576
     50 H15        31.5393   38.1709   -7.1639 H           1 MOL       0.0454
     51 H16        32.4489   36.9834   -8.0617 H           1 MOL       0.0454
     52 H17        31.8852   37.7097  -10.8782 H           1 MOL       0.0557
     53 H18        29.2799   37.5997   -7.5521 H           1 MOL       0.0557
     54 H19        30.0039   37.3231  -12.3450 H           1 MOL       0.0599
     55 H20        27.4244   37.1784   -9.0226 H           1 MOL       0.0599
     56 H21        27.7746   37.0190  -11.4212 H           1 MOL       0.0559
     57 H22        33.8308   39.9672  -10.7704 H           1 MOL       0.1876
     58 H23        31.5847   41.7967  -11.2300 H           1 MOL       0.0749
     59 H24        34.3605   42.4105  -12.3035 H           1 MOL       0.0467
     60 H25        34.1639   42.5920  -10.5767 H           1 MOL       0.0467
     61 H26        31.8551   43.8185   -9.8726 H           1 MOL       0.0557
     62 H27        34.0403   44.5026  -13.4277 H           1 MOL       0.0557
     63 H28        30.9462   46.0432  -10.0120 H           1 MOL       0.0599
     64 H29        33.1423   46.7389  -13.5314 H           1 MOL       0.0599
     65 H30        31.5881   47.5163  -11.8304 H           1 MOL       0.0559
@<TRIPOS>BOND
     1    24    25   1
     2    25    28   1
     3    25    26   1
     4    26    27  ar
     5    26    35  ar
     6    28    29   1
     7    29    30  ar
     8    29    31  ar
     9    31    33  ar
    10    33    34  ar
    11    32    34  ar
    12    30    32  ar
    13     2     1   1
    14     3     2   1
    15     2     6   1
    16     3     4  ar
    17     3     5  ar
    18    13     3   1
    19     6     7   1
    20     7     8  ar
    21     7     9  ar
    22     8    10  ar
    23     9    11  ar
    24    10    12  ar
    25    11    12  ar
    26    14    13   1
    27    14    15   1
    28    22    14   1
    29    15    16   1
    30    16    17  ar
    31    16    18  ar
    32    17    19  ar
    33    18    20  ar
    34    19    21  ar
    35    20    21  ar
    36    22    23   2
    37    22    24  am
    38     1    36   1
    39     1    37   1
    40     1    38   1
    41     2    39   1
    42     6    40   1
    43     6    41   1
    44     8    42   1
    45     9    43   1
    46    10    44   1
    47    11    45   1
    48    12    46   1
    49    13    47   1
    50    13    48   1
    51    14    49   1
    52    15    50   1
    53    15    51   1
    54    17    52   1
    55    18    53   1
    56    19    54   1
    57    20    55   1
    58    21    56   1
    59    24    57   1
    60    25    58   1
    61    28    59   1
    62    28    60   1
    63    30    61   1
    64    31    62   1
    65    32    63   1
    66    33    64   1
    67    34    65   1
@<TRIPOS>SUBSTRUCTURE
     1  MOL      2

