@<TRIPOS>MOLECULE
1os0_ligand_073
    65    67
SMALL
GAST_HUCK
****
This file was generated by PARSER (from files_GN.cpp)

@<TRIPOS>ATOM
      1 N          33.2814   45.9224  -14.7304 N.4         1 MOL       0.2351
      2 CA         32.3690   44.8846  -14.2092 C.3         1 MOL       0.0466
      3 P          32.2960   44.8930  -12.5256 P.3         1 MOL       0.0403
      4 O1P        32.8186   46.1636  -12.0608 O.co2       1 MOL      -0.6153
      5 O2P        30.9054   45.0685  -12.1661 O.co2       1 MOL      -0.6153
      6 CB         32.7121   43.4925  -14.8232 C.3         1 MOL       0.0407
      7 CG         32.4645   43.3991  -16.2879 C.ar        1 MOL      -0.0360
      8 CD1        31.3072   42.7437  -16.7769 C.ar        1 MOL      -0.0601
      9 CD2        33.3830   43.9369  -17.2191 C.ar        1 MOL      -0.0601
     10 CE1        31.0742   42.6240  -18.1592 C.ar        1 MOL      -0.0686
     11 CE2        33.1501   43.8205  -18.6023 C.ar        1 MOL      -0.0686
     12 CZ         31.9976   43.1635  -19.0708 C.ar        1 MOL      -0.0687
     13 CM         33.0136   43.6894  -11.5821 C.3         1 MOL       0.0402
     14 CA         32.0534   42.7645  -10.7356 C.3         1 MOL       0.0742
     15 CB         31.5699   41.4514  -11.4517 C.3         1 MOL       0.0021
     16 CG         32.4810   40.2608  -11.4444 C.ar        1 MOL      -0.0405
     17 CD1        32.3318   39.2408  -10.4720 C.ar        1 MOL      -0.0602
     18 CD2        33.5170   40.1188  -12.3989 C.ar        1 MOL      -0.0602
     19 CE1        33.2203   38.1514  -10.4170 C.ar        1 MOL      -0.0686
     20 CE2        34.4107   39.0304  -12.3446 C.ar        1 MOL      -0.0686
     21 CZ         34.2701   38.0540  -11.3440 C.ar        1 MOL      -0.0687
     22 C          32.5559   42.4931   -9.3799 C.2         1 MOL       0.1844
     23 O          31.9891   42.9939   -8.4194 O.2         1 MOL      -0.3964
     24 N          33.6431   41.7540   -9.1959 N.am        1 MOL      -0.2692
     25 CA         34.3434   41.5605   -7.9552 C.3         1 MOL       0.1038
     26 C          35.2330   42.7234   -7.7613 C.2         1 MOL       0.0621
     27 O          35.6442   43.0444   -6.5145 O.co2       1 MOL      -0.5664
     28 CB         35.1321   40.2109   -7.9465 C.3         1 MOL       0.0159
     29 CG         34.4520   38.9795   -7.4349 C.ar        1 MOL      -0.0392
     30 CD1        33.2613   38.9733   -6.6619 C.ar        1 MOL      -0.0602
     31 CD2        35.0632   37.7326   -7.7126 C.ar        1 MOL      -0.0602
     32 CE1        32.7280   37.7702   -6.1636 C.ar        1 MOL      -0.0686
     33 CE2        34.5427   36.5299   -7.2018 C.ar        1 MOL      -0.0686
     34 CZ         33.3752   36.5498   -6.4213 C.ar        1 MOL      -0.0687
     35 OXT        35.7073   43.4396   -8.8057 O.co2       1 MOL      -0.5664
     36 H1         33.2572   45.9162  -15.7515 H           1 MOL       0.2014
     37 H2         34.2364   45.7467  -14.4095 H           1 MOL       0.2014
     38 H3         32.9636   46.8428  -14.4124 H           1 MOL       0.2014
     39 H4         31.3752   45.1698  -14.5684 H           1 MOL       0.1089
     40 H5         32.1096   42.7234  -14.3440 H           1 MOL       0.0499
     41 H6         33.7560   43.2423  -14.6187 H           1 MOL       0.0499
     42 H7         30.6227   42.3437  -16.1296 H           1 MOL       0.0557
     43 H8         34.2324   44.4083  -16.8954 H           1 MOL       0.0557
     44 H9         30.2355   42.1447  -18.4953 H           1 MOL       0.0599
     45 H10        33.8224   44.2135  -19.2644 H           1 MOL       0.0599
     46 H11        31.8283   43.0803  -20.0740 H           1 MOL       0.0559
     47 H12        33.6887   44.2001  -10.8869 H           1 MOL       0.0496
     48 H13        33.6575   43.0758  -12.2103 H           1 MOL       0.0496
     49 H14        31.1456   43.3607  -10.5853 H           1 MOL       0.0576
     50 H15        31.3054   41.6706  -12.4837 H           1 MOL       0.0454
     51 H16        30.6250   41.1607  -10.9786 H           1 MOL       0.0454
     52 H17        31.5838   39.2944   -9.7755 H           1 MOL       0.0557
     53 H18        33.6365   40.8034  -13.1430 H           1 MOL       0.0557
     54 H19        33.1076   37.4338   -9.6960 H           1 MOL       0.0599
     55 H20        35.1568   38.9445  -13.0374 H           1 MOL       0.0599
     56 H21        34.9269   37.2698  -11.2952 H           1 MOL       0.0559
     57 H22        34.0967   41.4369   -9.9956 H           1 MOL       0.1876
     58 H23        33.6535   41.5663   -7.1062 H           1 MOL       0.0749
     59 H24        36.0178   40.3534   -7.3153 H           1 MOL       0.0467
     60 H25        35.5023   39.9983   -8.9545 H           1 MOL       0.0467
     61 H26        32.7647   39.8424   -6.4597 H           1 MOL       0.0557
     62 H27        35.9229   37.6922   -8.2655 H           1 MOL       0.0557
     63 H28        31.8687   37.7792   -5.6072 H           1 MOL       0.0599
     64 H29        35.0217   35.6473   -7.3892 H           1 MOL       0.0599
     65 H30        32.9978   35.6769   -6.0447 H           1 MOL       0.0559
@<TRIPOS>BOND
     1    24    25   1
     2    25    28   1
     3    25    26   1
     4    26    27  ar
     5    26    35  ar
     6    28    29   1
     7    29    30  ar
     8    29    31  ar
     9    31    33  ar
    10    33    34  ar
    11    32    34  ar
    12    30    32  ar
    13     2     1   1
    14     3     2   1
    15     2     6   1
    16     3     4  ar
    17     3     5  ar
    18    13     3   1
    19     6     7   1
    20     7     8  ar
    21     7     9  ar
    22     8    10  ar
    23     9    11  ar
    24    10    12  ar
    25    11    12  ar
    26    14    13   1
    27    14    15   1
    28    22    14   1
    29    15    16   1
    30    16    17  ar
    31    16    18  ar
    32    17    19  ar
    33    18    20  ar
    34    19    21  ar
    35    20    21  ar
    36    22    23   2
    37    22    24  am
    38     1    36   1
    39     1    37   1
    40     1    38   1
    41     2    39   1
    42     6    40   1
    43     6    41   1
    44     8    42   1
    45     9    43   1
    46    10    44   1
    47    11    45   1
    48    12    46   1
    49    13    47   1
    50    13    48   1
    51    14    49   1
    52    15    50   1
    53    15    51   1
    54    17    52   1
    55    18    53   1
    56    19    54   1
    57    20    55   1
    58    21    56   1
    59    24    57   1
    60    25    58   1
    61    28    59   1
    62    28    60   1
    63    30    61   1
    64    31    62   1
    65    32    63   1
    66    33    64   1
    67    34    65   1
@<TRIPOS>SUBSTRUCTURE
     1  MOL      2

