@<TRIPOS>MOLECULE
1os0_ligand_083
    65    67
SMALL
GAST_HUCK
****
This file was generated by PARSER (from files_GN.cpp)

@<TRIPOS>ATOM
      1 N          33.8534   39.7381   -6.5426 N.4         1 MOL       0.2351
      2 CA         34.9664   40.5351   -7.1196 C.3         1 MOL       0.0466
      3 P          34.3805   41.9663   -7.7919 P.3         1 MOL       0.0403
      4 O1P        33.3185   42.4176   -6.9282 O.co2       1 MOL      -0.6153
      5 O2P        35.3813   42.9902   -7.5977 O.co2       1 MOL      -0.6153
      6 CB         35.7754   39.6467   -8.1171 C.3         1 MOL       0.0407
      7 CG         36.4413   38.4413   -7.5338 C.ar        1 MOL      -0.0360
      8 CD1        37.3146   38.5705   -6.4288 C.ar        1 MOL      -0.0601
      9 CD2        36.2550   37.1780   -8.1441 C.ar        1 MOL      -0.0601
     10 CE1        38.0314   37.4506   -5.9786 C.ar        1 MOL      -0.0686
     11 CE2        36.9661   36.0620   -7.6913 C.ar        1 MOL      -0.0686
     12 CZ         37.8737   36.1982   -6.6183 C.ar        1 MOL      -0.0687
     13 CM         33.8478   41.9918   -9.3929 C.3         1 MOL       0.0402
     14 CA         32.3558   42.4160   -9.6919 C.3         1 MOL       0.0742
     15 CB         32.1466   42.7536  -11.2170 C.3         1 MOL       0.0021
     16 CG         32.5157   44.1601  -11.5497 C.ar        1 MOL      -0.0405
     17 CD1        33.8395   44.4866  -11.9203 C.ar        1 MOL      -0.0602
     18 CD2        31.5509   45.1935  -11.4520 C.ar        1 MOL      -0.0602
     19 CE1        34.1914   45.8202  -12.1703 C.ar        1 MOL      -0.0686
     20 CE2        31.9007   46.5237  -11.7253 C.ar        1 MOL      -0.0686
     21 CZ         33.2253   46.8395  -12.0827 C.ar        1 MOL      -0.0687
     22 C          31.4007   41.3833   -9.2747 C.2         1 MOL       0.1844
     23 O          30.5503   41.6867   -8.4407 O.2         1 MOL      -0.3964
     24 N          31.4384   40.1766   -9.8284 N.am        1 MOL      -0.2692
     25 CA         30.5438   39.0865   -9.5866 C.3         1 MOL       0.1038
     26 C          31.2393   38.1141   -8.7136 C.2         1 MOL       0.0621
     27 O          30.5630   37.5468   -7.6761 O.co2       1 MOL      -0.5664
     28 CB         30.0873   38.4121  -10.9096 C.3         1 MOL       0.0159
     29 CG         29.1497   39.2583  -11.6821 C.ar        1 MOL      -0.0392
     30 CD1        27.7929   39.3547  -11.2946 C.ar        1 MOL      -0.0602
     31 CD2        29.5698   39.9319  -12.8542 C.ar        1 MOL      -0.0602
     32 CE1        26.8755   40.0878  -12.0605 C.ar        1 MOL      -0.0686
     33 CE2        28.6502   40.6808  -13.6164 C.ar        1 MOL      -0.0686
     34 CZ         27.3029   40.7553  -13.2227 C.ar        1 MOL      -0.0687
     35 OXT        32.4054   37.5376   -9.1017 O.co2       1 MOL      -0.5664
     36 H1         34.2282   38.8934   -6.1050 H           1 MOL       0.2014
     37 H2         33.2086   39.4613   -7.2886 H           1 MOL       0.2014
     38 H3         33.3607   40.2868   -5.8291 H           1 MOL       0.2014
     39 H4         35.6243   40.8045   -6.2834 H           1 MOL       0.1089
     40 H5         36.5413   40.2720   -8.6112 H           1 MOL       0.0499
     41 H6         35.0896   39.3373   -8.9208 H           1 MOL       0.0499
     42 H7         37.4505   39.4788   -5.9815 H           1 MOL       0.0557
     43 H8         35.6071   37.0674   -8.9283 H           1 MOL       0.0557
     44 H9         38.6880   37.5429   -5.2050 H           1 MOL       0.0599
     45 H10        36.8485   35.1524   -8.1456 H           1 MOL       0.0599
     46 H11        38.4060   35.3914   -6.2831 H           1 MOL       0.0559
     47 H12        34.0018   41.0036   -9.8347 H           1 MOL       0.0496
     48 H13        34.5217   42.6760   -9.9253 H           1 MOL       0.0496
     49 H14        32.1649   43.3293   -9.1155 H           1 MOL       0.0576
     50 H15        31.0952   42.6065  -11.4988 H           1 MOL       0.0454
     51 H16        32.7139   42.0478  -11.8342 H           1 MOL       0.0454
     52 H17        34.5602   43.7625  -11.9704 H           1 MOL       0.0557
     53 H18        30.5938   44.9769  -11.1544 H           1 MOL       0.0557
     54 H19        35.1597   46.0486  -12.3947 H           1 MOL       0.0599
     55 H20        31.2042   47.2633  -11.6306 H           1 MOL       0.0599
     56 H21        33.4847   47.8144  -12.2538 H           1 MOL       0.0559
     57 H22        32.1303   40.0183  -10.4858 H           1 MOL       0.1876
     58 H23        29.6455   39.4158   -9.0442 H           1 MOL       0.0749
     59 H24        29.5840   37.4668  -10.6982 H           1 MOL       0.0467
     60 H25        30.9653   38.1623  -11.5081 H           1 MOL       0.0467
     61 H26        27.4623   38.8730  -10.4482 H           1 MOL       0.0557
     62 H27        30.5472   39.8923  -13.1579 H           1 MOL       0.0557
     63 H28        25.8941   40.1349  -11.7721 H           1 MOL       0.0599
     64 H29        28.9632   41.1524  -14.4692 H           1 MOL       0.0599
     65 H30        26.6366   41.2833  -13.7829 H           1 MOL       0.0559
@<TRIPOS>BOND
     1    24    25   1
     2    25    28   1
     3    25    26   1
     4    26    27  ar
     5    26    35  ar
     6    28    29   1
     7    29    30  ar
     8    29    31  ar
     9    31    33  ar
    10    33    34  ar
    11    32    34  ar
    12    30    32  ar
    13     2     1   1
    14     3     2   1
    15     2     6   1
    16     3     4  ar
    17     3     5  ar
    18    13     3   1
    19     6     7   1
    20     7     8  ar
    21     7     9  ar
    22     8    10  ar
    23     9    11  ar
    24    10    12  ar
    25    11    12  ar
    26    14    13   1
    27    14    15   1
    28    22    14   1
    29    15    16   1
    30    16    17  ar
    31    16    18  ar
    32    17    19  ar
    33    18    20  ar
    34    19    21  ar
    35    20    21  ar
    36    22    23   2
    37    22    24  am
    38     1    36   1
    39     1    37   1
    40     1    38   1
    41     2    39   1
    42     6    40   1
    43     6    41   1
    44     8    42   1
    45     9    43   1
    46    10    44   1
    47    11    45   1
    48    12    46   1
    49    13    47   1
    50    13    48   1
    51    14    49   1
    52    15    50   1
    53    15    51   1
    54    17    52   1
    55    18    53   1
    56    19    54   1
    57    20    55   1
    58    21    56   1
    59    24    57   1
    60    25    58   1
    61    28    59   1
    62    28    60   1
    63    30    61   1
    64    31    62   1
    65    32    63   1
    66    33    64   1
    67    34    65   1
@<TRIPOS>SUBSTRUCTURE
     1  MOL      2

