@<TRIPOS>MOLECULE
1os0_ligand_020
    65    67
SMALL
GAST_HUCK
****
This file was generated by PARSER (from files_GN.cpp)

@<TRIPOS>ATOM
      1 N          36.0952   39.8121   -5.1354 N.4         1 MOL       0.2351
      2 CA         35.4568   41.1435   -5.2317 C.3         1 MOL       0.0466
      3 P          35.2606   41.6067   -6.8438 P.3         1 MOL       0.0403
      4 O1P        35.8755   42.8994   -7.0438 O.co2       1 MOL      -0.6153
      5 O2P        35.9144   40.6918   -7.7545 O.co2       1 MOL      -0.6153
      6 CB         36.2500   42.1690   -4.3617 C.3         1 MOL       0.0407
      7 CG         36.1457   41.9682   -2.8836 C.ar        1 MOL      -0.0360
      8 CD1        34.8777   41.9416   -2.2513 C.ar        1 MOL      -0.0601
      9 CD2        37.3074   41.8976   -2.0721 C.ar        1 MOL      -0.0601
     10 CE1        34.7719   41.8788   -0.8493 C.ar        1 MOL      -0.0686
     11 CE2        37.1987   41.8232   -0.6704 C.ar        1 MOL      -0.0686
     12 CZ         35.9352   41.8321   -0.0599 C.ar        1 MOL      -0.0687
     13 CM         33.6452   41.7608   -7.2655 C.3         1 MOL       0.0402
     14 CA         33.2007   41.9177   -8.7758 C.3         1 MOL       0.0742
     15 CB         34.2915   42.3283   -9.8300 C.3         1 MOL       0.0021
     16 CG         33.7824   43.1141  -10.9911 C.ar        1 MOL      -0.0405
     17 CD1        33.4335   44.4805  -10.8377 C.ar        1 MOL      -0.0602
     18 CD2        33.6693   42.5310  -12.2761 C.ar        1 MOL      -0.0602
     19 CE1        32.9983   45.2407  -11.9389 C.ar        1 MOL      -0.0686
     20 CE2        33.2307   43.2884  -13.3771 C.ar        1 MOL      -0.0686
     21 CZ         32.8929   44.6446  -13.2070 C.ar        1 MOL      -0.0687
     22 C          32.4698   40.7292   -9.2223 C.2         1 MOL       0.1844
     23 O          31.2509   40.7837   -9.3438 O.2         1 MOL      -0.3964
     24 N          33.1195   39.5976   -9.4720 N.am        1 MOL      -0.2692
     25 CA         32.5633   38.3351   -9.8705 C.3         1 MOL       0.1038
     26 C          32.1248   37.5478   -8.6912 C.2         1 MOL       0.0621
     27 O          31.6611   38.1323   -7.5570 O.co2       1 MOL      -0.5664
     28 CB         33.5641   37.5436  -10.7737 C.3         1 MOL       0.0159
     29 CG         34.9794   37.5120  -10.2965 C.ar        1 MOL      -0.0392
     30 CD1        36.0064   38.1790  -11.0138 C.ar        1 MOL      -0.0602
     31 CD2        35.3270   36.8420   -9.0956 C.ar        1 MOL      -0.0602
     32 CE1        37.3256   38.2002  -10.5333 C.ar        1 MOL      -0.0686
     33 CE2        36.6463   36.8642   -8.6131 C.ar        1 MOL      -0.0686
     34 CZ         37.6483   37.5450   -9.3277 C.ar        1 MOL      -0.0687
     35 OXT        32.0832   36.1953   -8.7724 O.co2       1 MOL      -0.5664
     36 H1         36.0627   39.4655   -4.1707 H           1 MOL       0.2014
     37 H2         37.0728   39.8675   -5.4454 H           1 MOL       0.2014
     38 H3         35.5940   39.1467   -5.7294 H           1 MOL       0.2014
     39 H4         34.4592   41.0284   -4.7970 H           1 MOL       0.1089
     40 H5         35.8859   43.1807   -4.5648 H           1 MOL       0.0499
     41 H6         37.3022   42.1431   -4.6814 H           1 MOL       0.0499
     42 H7         34.0175   42.0001   -2.8087 H           1 MOL       0.0557
     43 H8         38.2371   41.9251   -2.4965 H           1 MOL       0.0557
     44 H9         33.8571   41.8935   -0.4046 H           1 MOL       0.0599
     45 H10        38.0424   41.7937   -0.1004 H           1 MOL       0.0599
     46 H11        35.8561   41.8047    0.9561 H           1 MOL       0.0559
     47 H12        33.2773   42.6259   -6.7044 H           1 MOL       0.0496
     48 H13        33.1536   40.8942   -6.8118 H           1 MOL       0.0496
     49 H14        32.4942   42.7534   -8.7789 H           1 MOL       0.0576
     50 H15        34.7993   41.4348  -10.1989 H           1 MOL       0.0454
     51 H16        35.0593   42.9343   -9.3368 H           1 MOL       0.0454
     52 H17        33.5033   44.9300   -9.9233 H           1 MOL       0.0557
     53 H18        33.9197   41.5495  -12.4221 H           1 MOL       0.0557
     54 H19        32.7664   46.2299  -11.8197 H           1 MOL       0.0599
     55 H20        33.1727   42.8611  -14.3024 H           1 MOL       0.0599
     56 H21        32.5829   45.1975  -14.0107 H           1 MOL       0.0559
     57 H22        34.0796   39.6221   -9.3264 H           1 MOL       0.1876
     58 H23        31.6666   38.5147  -10.4705 H           1 MOL       0.0749
     59 H24        33.5237   37.9946  -11.7730 H           1 MOL       0.0467
     60 H25        33.2214   36.5076  -10.9061 H           1 MOL       0.0467
     61 H26        35.7942   38.6683  -11.8855 H           1 MOL       0.0557
     62 H27        34.6179   36.3400   -8.5605 H           1 MOL       0.0557
     63 H28        38.0562   38.6932  -11.0523 H           1 MOL       0.0599
     64 H29        36.8783   36.3975   -7.7320 H           1 MOL       0.0599
     65 H30        38.6124   37.5507   -8.9820 H           1 MOL       0.0559
@<TRIPOS>BOND
     1    24    25   1
     2    25    28   1
     3    25    26   1
     4    26    27  ar
     5    26    35  ar
     6    28    29   1
     7    29    30  ar
     8    29    31  ar
     9    31    33  ar
    10    33    34  ar
    11    32    34  ar
    12    30    32  ar
    13     2     1   1
    14     3     2   1
    15     2     6   1
    16     3     4  ar
    17     3     5  ar
    18    13     3   1
    19     6     7   1
    20     7     8  ar
    21     7     9  ar
    22     8    10  ar
    23     9    11  ar
    24    10    12  ar
    25    11    12  ar
    26    14    13   1
    27    14    15   1
    28    22    14   1
    29    15    16   1
    30    16    17  ar
    31    16    18  ar
    32    17    19  ar
    33    18    20  ar
    34    19    21  ar
    35    20    21  ar
    36    22    23   2
    37    22    24  am
    38     1    36   1
    39     1    37   1
    40     1    38   1
    41     2    39   1
    42     6    40   1
    43     6    41   1
    44     8    42   1
    45     9    43   1
    46    10    44   1
    47    11    45   1
    48    12    46   1
    49    13    47   1
    50    13    48   1
    51    14    49   1
    52    15    50   1
    53    15    51   1
    54    17    52   1
    55    18    53   1
    56    19    54   1
    57    20    55   1
    58    21    56   1
    59    24    57   1
    60    25    58   1
    61    28    59   1
    62    28    60   1
    63    30    61   1
    64    31    62   1
    65    32    63   1
    66    33    64   1
    67    34    65   1
@<TRIPOS>SUBSTRUCTURE
     1  MOL      2

