@<TRIPOS>MOLECULE
1os0_ligand_070
    65    67
SMALL
GAST_HUCK
****
This file was generated by PARSER (from files_GN.cpp)

@<TRIPOS>ATOM
      1 N          38.4917   37.5346  -10.7105 N.4         1 MOL       0.2351
      2 CA         37.2869   36.6959  -10.5550 C.3         1 MOL       0.0466
      3 P          36.6388   36.7320   -9.0053 P.3         1 MOL       0.0403
      4 O1P        35.2057   36.7624   -9.0949 O.co2       1 MOL      -0.6153
      5 O2P        36.9402   35.5604   -8.2307 O.co2       1 MOL      -0.6153
      6 CB         37.5257   35.2796  -11.1774 C.3         1 MOL       0.0407
      7 CG         38.1678   34.2411  -10.3241 C.ar        1 MOL      -0.0360
      8 CD1        39.4621   34.4373   -9.7829 C.ar        1 MOL      -0.0601
      9 CD2        37.4751   33.0502   -9.9946 C.ar        1 MOL      -0.0601
     10 CE1        40.0369   33.4824   -8.9216 C.ar        1 MOL      -0.0686
     11 CE2        38.0531   32.0872   -9.1434 C.ar        1 MOL      -0.0686
     12 CZ         39.3348   32.3043   -8.6071 C.ar        1 MOL      -0.0687
     13 CM         37.1399   38.0425   -8.1049 C.3         1 MOL       0.0402
     14 CA         36.7253   38.0708   -6.5828 C.3         1 MOL       0.0742
     15 CB         37.9507   38.2269   -5.6191 C.3         1 MOL       0.0021
     16 CG         38.8338   37.0221   -5.5669 C.ar        1 MOL      -0.0405
     17 CD1        38.4236   35.8742   -4.8476 C.ar        1 MOL      -0.0602
     18 CD2        40.0958   36.9965   -6.2070 C.ar        1 MOL      -0.0602
     19 CE1        39.2541   34.7406   -4.7615 C.ar        1 MOL      -0.0686
     20 CE2        40.9168   35.8546   -6.1406 C.ar        1 MOL      -0.0686
     21 CZ         40.4972   34.7287   -5.4121 C.ar        1 MOL      -0.0687
     22 C          35.7425   39.1212   -6.3080 C.2         1 MOL       0.1844
     23 O          34.6300   38.8070   -5.9025 O.2         1 MOL      -0.3964
     24 N          36.0659   40.4028   -6.4731 N.am        1 MOL      -0.2692
     25 CA         35.2734   41.5519   -6.1506 C.3         1 MOL       0.1038
     26 C          34.8912   42.1952   -7.4265 C.2         1 MOL       0.0621
     27 O          34.0376   41.5536   -8.2547 O.co2       1 MOL      -0.5664
     28 CB         36.0829   42.4855   -5.1968 C.3         1 MOL       0.0159
     29 CG         36.4273   41.8551   -3.8855 C.ar        1 MOL      -0.0392
     30 CD1        35.4191   41.6173   -2.9189 C.ar        1 MOL      -0.0602
     31 CD2        37.7612   41.5009   -3.5754 C.ar        1 MOL      -0.0602
     32 CE1        35.7382   41.0299   -1.6795 C.ar        1 MOL      -0.0686
     33 CE2        38.0789   40.9103   -2.3380 C.ar        1 MOL      -0.0686
     34 CZ         37.0668   40.6705   -1.3916 C.ar        1 MOL      -0.0687
     35 OXT        35.2522   43.4586   -7.7429 O.co2       1 MOL      -0.5664
     36 H1         38.7435   37.5529  -11.6992 H           1 MOL       0.2014
     37 H2         39.2767   37.1769  -10.1674 H           1 MOL       0.2014
     38 H3         38.2947   38.4898  -10.4112 H           1 MOL       0.2014
     39 H4         36.5632   37.1993  -11.2021 H           1 MOL       0.1089
     40 H5         38.1464   35.3836  -12.0769 H           1 MOL       0.0499
     41 H6         36.5483   34.9151  -11.5205 H           1 MOL       0.0499
     42 H7         39.9908   35.2881   -9.9799 H           1 MOL       0.0557
     43 H8         36.5246   32.8888  -10.3421 H           1 MOL       0.0557
     44 H9         40.9595   33.6481   -8.5156 H           1 MOL       0.0599
     45 H10        37.5366   31.2365   -8.9155 H           1 MOL       0.0599
     46 H11        39.7553   31.5990   -7.9929 H           1 MOL       0.0559
     47 H12        36.7857   38.9345   -8.6285 H           1 MOL       0.0496
     48 H13        38.2254   38.0534   -8.1700 H           1 MOL       0.0496
     49 H14        36.2564   37.1112   -6.3259 H           1 MOL       0.0576
     50 H15        37.6062   38.4250   -4.6019 H           1 MOL       0.0454
     51 H16        38.5288   39.1025   -5.9236 H           1 MOL       0.0454
     52 H17        37.5240   35.8632   -4.3621 H           1 MOL       0.0557
     53 H18        40.4278   37.8095   -6.7340 H           1 MOL       0.0557
     54 H19        38.9542   33.9284   -4.2143 H           1 MOL       0.0599
     55 H20        41.8270   35.8462   -6.6114 H           1 MOL       0.0599
     56 H21        41.1019   33.9044   -5.3460 H           1 MOL       0.0559
     57 H22        36.9478   40.5868   -6.8374 H           1 MOL       0.1876
     58 H23        34.3420   41.2796   -5.6454 H           1 MOL       0.0749
     59 H24        35.5043   43.3914   -4.9976 H           1 MOL       0.0467
     60 H25        36.9955   42.8024   -5.7141 H           1 MOL       0.0467
     61 H26        34.4493   41.8798   -3.1081 H           1 MOL       0.0557
     62 H27        38.5135   41.6648   -4.2504 H           1 MOL       0.0557
     63 H28        35.0039   40.8664   -0.9898 H           1 MOL       0.0599
     64 H29        39.0441   40.6575   -2.1276 H           1 MOL       0.0599
     65 H30        37.2973   40.2403   -0.4939 H           1 MOL       0.0559
@<TRIPOS>BOND
     1    24    25   1
     2    25    28   1
     3    25    26   1
     4    26    27  ar
     5    26    35  ar
     6    28    29   1
     7    29    30  ar
     8    29    31  ar
     9    31    33  ar
    10    33    34  ar
    11    32    34  ar
    12    30    32  ar
    13     2     1   1
    14     3     2   1
    15     2     6   1
    16     3     4  ar
    17     3     5  ar
    18    13     3   1
    19     6     7   1
    20     7     8  ar
    21     7     9  ar
    22     8    10  ar
    23     9    11  ar
    24    10    12  ar
    25    11    12  ar
    26    14    13   1
    27    14    15   1
    28    22    14   1
    29    15    16   1
    30    16    17  ar
    31    16    18  ar
    32    17    19  ar
    33    18    20  ar
    34    19    21  ar
    35    20    21  ar
    36    22    23   2
    37    22    24  am
    38     1    36   1
    39     1    37   1
    40     1    38   1
    41     2    39   1
    42     6    40   1
    43     6    41   1
    44     8    42   1
    45     9    43   1
    46    10    44   1
    47    11    45   1
    48    12    46   1
    49    13    47   1
    50    13    48   1
    51    14    49   1
    52    15    50   1
    53    15    51   1
    54    17    52   1
    55    18    53   1
    56    19    54   1
    57    20    55   1
    58    21    56   1
    59    24    57   1
    60    25    58   1
    61    28    59   1
    62    28    60   1
    63    30    61   1
    64    31    62   1
    65    32    63   1
    66    33    64   1
    67    34    65   1
@<TRIPOS>SUBSTRUCTURE
     1  MOL      2

