@<TRIPOS>MOLECULE
1os0_ligand_049
    65    67
SMALL
GAST_HUCK
****
This file was generated by PARSER (from files_GN.cpp)

@<TRIPOS>ATOM
      1 N          35.0580   41.1397   -5.3799 N.4         1 MOL       0.2351
      2 CA         35.3788   40.9938   -6.8168 C.3         1 MOL       0.0466
      3 P          34.5352   42.1328   -7.7085 P.3         1 MOL       0.0403
      4 O1P        33.1582   42.2195   -7.2623 O.co2       1 MOL      -0.6153
      5 O2P        35.1296   43.3888   -7.3030 O.co2       1 MOL      -0.6153
      6 CB         35.2544   39.5097   -7.2721 C.3         1 MOL       0.0407
      7 CG         33.9255   38.8428   -7.1160 C.ar        1 MOL      -0.0360
      8 CD1        33.3497   38.6409   -5.8377 C.ar        1 MOL      -0.0601
      9 CD2        33.2399   38.3312   -8.2439 C.ar        1 MOL      -0.0601
     10 CE1        32.1237   37.9625   -5.6956 C.ar        1 MOL      -0.0686
     11 CE2        32.0089   37.6521   -8.1022 C.ar        1 MOL      -0.0686
     12 CZ         31.4504   37.4708   -6.8290 C.ar        1 MOL      -0.0687
     13 CM         34.6952   42.0812   -9.3841 C.3         1 MOL       0.0402
     14 CA         33.3733   42.1422  -10.2377 C.3         1 MOL       0.0742
     15 CB         33.5513   42.8335  -11.6537 C.3         1 MOL       0.0021
     16 CG         32.8655   44.1538  -11.7654 C.ar        1 MOL      -0.0405
     17 CD1        33.5818   45.3757  -11.7242 C.ar        1 MOL      -0.0602
     18 CD2        31.4571   44.1991  -11.9082 C.ar        1 MOL      -0.0602
     19 CE1        32.9024   46.6074  -11.8043 C.ar        1 MOL      -0.0686
     20 CE2        30.7829   45.4274  -12.0103 C.ar        1 MOL      -0.0686
     21 CZ         31.5027   46.6325  -11.9380 C.ar        1 MOL      -0.0687
     22 C          32.7587   40.8125  -10.3510 C.2         1 MOL       0.1844
     23 O          31.8224   40.5395   -9.6101 O.2         1 MOL      -0.3964
     24 N          33.1786   39.9460  -11.2705 N.am        1 MOL      -0.2692
     25 CA         32.5897   38.6745  -11.5918 C.3         1 MOL       0.1038
     26 C          33.6765   37.6849  -11.7926 C.2         1 MOL       0.0621
     27 O          33.8230   36.6298  -10.9523 O.co2       1 MOL      -0.5664
     28 CB         31.6829   38.7409  -12.8645 C.3         1 MOL       0.0159
     29 CG         30.6783   39.8411  -12.8598 C.ar        1 MOL      -0.0392
     30 CD1        29.6944   39.9176  -11.8436 C.ar        1 MOL      -0.0602
     31 CD2        30.6613   40.8125  -13.8888 C.ar        1 MOL      -0.0602
     32 CE1        28.7480   40.9598  -11.8345 C.ar        1 MOL      -0.0686
     33 CE2        29.7022   41.8447  -13.8933 C.ar        1 MOL      -0.0686
     34 CZ         28.7517   41.9249  -12.8572 C.ar        1 MOL      -0.0687
     35 OXT        34.5253   37.8006  -12.8399 O.co2       1 MOL      -0.5664
     36 H1         35.5184   40.4050   -4.8398 H           1 MOL       0.2014
     37 H2         34.0441   41.0749   -5.2363 H           1 MOL       0.2014
     38 H3         35.3831   42.0547   -5.0407 H           1 MOL       0.2014
     39 H4         36.4371   41.2505   -6.9088 H           1 MOL       0.1089
     40 H5         35.9778   38.9124   -6.7051 H           1 MOL       0.0499
     41 H6         35.5736   39.4642   -8.3232 H           1 MOL       0.0499
     42 H7         33.8300   38.9652   -4.9996 H           1 MOL       0.0557
     43 H8         33.6440   38.4326   -9.1808 H           1 MOL       0.0557
     44 H9         31.7254   37.8247   -4.7599 H           1 MOL       0.0599
     45 H10        31.5258   37.2853   -8.9304 H           1 MOL       0.0599
     46 H11        30.5641   36.9712   -6.7256 H           1 MOL       0.0559
     47 H12        35.2688   41.1805   -9.6536 H           1 MOL       0.0496
     48 H13        35.3207   42.9379   -9.6581 H           1 MOL       0.0496
     49 H14        32.6813   42.7808   -9.6730 H           1 MOL       0.0576
     50 H15        33.1513   42.2145  -12.4641 H           1 MOL       0.0454
     51 H16        34.6106   42.9525  -11.8881 H           1 MOL       0.0454
     52 H17        34.5989   45.3759  -11.6245 H           1 MOL       0.0557
     53 H18        30.9153   43.3316  -11.9352 H           1 MOL       0.0557
     54 H19        33.4262   47.4840  -11.7593 H           1 MOL       0.0599
     55 H20        29.7677   45.4393  -12.1325 H           1 MOL       0.0599
     56 H21        31.0095   47.5265  -11.9838 H           1 MOL       0.0559
     57 H22        33.9120   40.2292  -11.8312 H           1 MOL       0.1876
     58 H23        31.9687   38.3081  -10.7641 H           1 MOL       0.0749
     59 H24        31.1307   37.7941  -12.9567 H           1 MOL       0.0467
     60 H25        32.3245   38.8196  -13.7497 H           1 MOL       0.0467
     61 H26        29.6600   39.2199  -11.1019 H           1 MOL       0.0557
     62 H27        31.3425   40.7788  -14.6482 H           1 MOL       0.0557
     63 H28        28.0551   41.0170  -11.0834 H           1 MOL       0.0599
     64 H29        29.6990   42.5407  -14.6408 H           1 MOL       0.0599
     65 H30        28.0660   42.6874  -12.8493 H           1 MOL       0.0559
@<TRIPOS>BOND
     1    24    25   1
     2    25    28   1
     3    25    26   1
     4    26    27  ar
     5    26    35  ar
     6    28    29   1
     7    29    30  ar
     8    29    31  ar
     9    31    33  ar
    10    33    34  ar
    11    32    34  ar
    12    30    32  ar
    13     2     1   1
    14     3     2   1
    15     2     6   1
    16     3     4  ar
    17     3     5  ar
    18    13     3   1
    19     6     7   1
    20     7     8  ar
    21     7     9  ar
    22     8    10  ar
    23     9    11  ar
    24    10    12  ar
    25    11    12  ar
    26    14    13   1
    27    14    15   1
    28    22    14   1
    29    15    16   1
    30    16    17  ar
    31    16    18  ar
    32    17    19  ar
    33    18    20  ar
    34    19    21  ar
    35    20    21  ar
    36    22    23   2
    37    22    24  am
    38     1    36   1
    39     1    37   1
    40     1    38   1
    41     2    39   1
    42     6    40   1
    43     6    41   1
    44     8    42   1
    45     9    43   1
    46    10    44   1
    47    11    45   1
    48    12    46   1
    49    13    47   1
    50    13    48   1
    51    14    49   1
    52    15    50   1
    53    15    51   1
    54    17    52   1
    55    18    53   1
    56    19    54   1
    57    20    55   1
    58    21    56   1
    59    24    57   1
    60    25    58   1
    61    28    59   1
    62    28    60   1
    63    30    61   1
    64    31    62   1
    65    32    63   1
    66    33    64   1
    67    34    65   1
@<TRIPOS>SUBSTRUCTURE
     1  MOL      2

