@<TRIPOS>MOLECULE
1os0_ligand_028
    65    67
SMALL
GAST_HUCK
****
This file was generated by PARSER (from files_GN.cpp)

@<TRIPOS>ATOM
      1 N          30.4867   45.1282  -13.6471 N.4         1 MOL       0.2351
      2 CA         31.6999   44.4634  -14.1649 C.3         1 MOL       0.0466
      3 P          32.9488   44.5332  -13.0380 P.3         1 MOL       0.0403
      4 O1P        34.2109   44.7499  -13.6981 O.co2       1 MOL      -0.6153
      5 O2P        32.7996   45.6616  -12.1498 O.co2       1 MOL      -0.6153
      6 CB         32.0253   44.9678  -15.6141 C.3         1 MOL       0.0407
      7 CG         32.6091   43.9947  -16.5990 C.ar        1 MOL      -0.0360
      8 CD1        33.2152   42.7588  -16.2511 C.ar        1 MOL      -0.0601
      9 CD2        32.5568   44.3366  -17.9762 C.ar        1 MOL      -0.0601
     10 CE1        33.7014   41.8829  -17.2427 C.ar        1 MOL      -0.0686
     11 CE2        33.0471   43.4650  -18.9659 C.ar        1 MOL      -0.0686
     12 CZ         33.6228   42.2371  -18.6004 C.ar        1 MOL      -0.0687
     13 CM         33.1603   43.1526  -12.1115 C.3         1 MOL       0.0402
     14 CA         31.9981   42.7625  -11.1137 C.3         1 MOL       0.0742
     15 CB         31.3395   41.3738  -11.4372 C.3         1 MOL       0.0021
     16 CG         30.4974   41.3419  -12.6671 C.ar        1 MOL      -0.0405
     17 CD1        30.9552   40.7318  -13.8602 C.ar        1 MOL      -0.0602
     18 CD2        29.2046   41.9172  -12.6608 C.ar        1 MOL      -0.0602
     19 CE1        30.1509   40.7196  -15.0179 C.ar        1 MOL      -0.0686
     20 CE2        28.3938   41.8893  -13.8119 C.ar        1 MOL      -0.0686
     21 CZ         28.8688   41.2939  -14.9926 C.ar        1 MOL      -0.0687
     22 C          32.4562   42.7870   -9.7168 C.2         1 MOL       0.1844
     23 O          31.9235   43.5472   -8.9173 O.2         1 MOL      -0.3964
     24 N          33.4135   41.9598   -9.3115 N.am        1 MOL      -0.2692
     25 CA         33.9651   41.8495   -7.9850 C.3         1 MOL       0.1038
     26 C          35.0265   42.8635   -7.7884 C.2         1 MOL       0.0621
     27 O          35.6534   43.4541   -8.8301 O.co2       1 MOL      -0.5664
     28 CB         34.5181   40.4095   -7.7348 C.3         1 MOL       0.0159
     29 CG         33.4501   39.4010   -7.4641 C.ar        1 MOL      -0.0392
     30 CD1        33.3327   38.7795   -6.1977 C.ar        1 MOL      -0.0602
     31 CD2        32.5185   39.0498   -8.4727 C.ar        1 MOL      -0.0602
     32 CE1        32.2862   37.8726   -5.9331 C.ar        1 MOL      -0.0686
     33 CE2        31.4593   38.1651   -8.2042 C.ar        1 MOL      -0.0686
     34 CZ         31.3445   37.5757   -6.9337 C.ar        1 MOL      -0.0687
     35 OXT        35.4870   43.1339   -6.5456 O.co2       1 MOL      -0.5664
     36 H1         29.7085   44.9077  -14.2713 H           1 MOL       0.2014
     37 H2         30.6001   46.1455  -13.6112 H           1 MOL       0.2014
     38 H3         30.2552   44.7756  -12.7156 H           1 MOL       0.2014
     39 H4         31.4038   43.4245  -14.2527 H           1 MOL       0.1089
     40 H5         32.6785   45.8477  -15.5766 H           1 MOL       0.0499
     41 H6         31.0808   45.3142  -16.0430 H           1 MOL       0.0499
     42 H7         33.3174   42.4852  -15.2726 H           1 MOL       0.0557
     43 H8         32.1493   45.2328  -18.2714 H           1 MOL       0.0557
     44 H9         34.1270   40.9926  -16.9697 H           1 MOL       0.0599
     45 H10        32.9831   43.7224  -19.9508 H           1 MOL       0.0599
     46 H11        33.9884   41.6061  -19.3149 H           1 MOL       0.0559
     47 H12        34.0982   43.2959  -11.5700 H           1 MOL       0.0496
     48 H13        33.3527   42.3282  -12.8001 H           1 MOL       0.0496
     49 H14        31.1939   43.5030  -11.1948 H           1 MOL       0.0576
     50 H15        30.7023   41.0664  -10.6001 H           1 MOL       0.0454
     51 H16        32.1306   40.6225  -11.5105 H           1 MOL       0.0454
     52 H17        31.8850   40.3078  -13.9035 H           1 MOL       0.0557
     53 H18        28.8377   42.3597  -11.8146 H           1 MOL       0.0557
     54 H19        30.5061   40.3014  -15.8838 H           1 MOL       0.0599
     55 H20        27.4568   42.3013  -13.7880 H           1 MOL       0.0599
     56 H21        28.2850   41.2807  -15.8304 H           1 MOL       0.0559
     57 H22        33.7799   41.3609   -9.9833 H           1 MOL       0.1876
     58 H23        33.1843   42.0527   -7.2449 H           1 MOL       0.0749
     59 H24        35.2088   40.4336   -6.8866 H           1 MOL       0.0467
     60 H25        35.1027   40.0845   -8.5990 H           1 MOL       0.0467
     61 H26        33.9973   38.9904   -5.4498 H           1 MOL       0.0557
     62 H27        32.6001   39.4422   -9.4109 H           1 MOL       0.0557
     63 H28        32.2083   37.4389   -5.0100 H           1 MOL       0.0599
     64 H29        30.7731   37.9553   -8.9309 H           1 MOL       0.0599
     65 H30        30.5726   36.9328   -6.7390 H           1 MOL       0.0559
@<TRIPOS>BOND
     1    24    25   1
     2    25    28   1
     3    25    26   1
     4    26    27  ar
     5    26    35  ar
     6    28    29   1
     7    29    30  ar
     8    29    31  ar
     9    31    33  ar
    10    33    34  ar
    11    32    34  ar
    12    30    32  ar
    13     2     1   1
    14     3     2   1
    15     2     6   1
    16     3     4  ar
    17     3     5  ar
    18    13     3   1
    19     6     7   1
    20     7     8  ar
    21     7     9  ar
    22     8    10  ar
    23     9    11  ar
    24    10    12  ar
    25    11    12  ar
    26    14    13   1
    27    14    15   1
    28    22    14   1
    29    15    16   1
    30    16    17  ar
    31    16    18  ar
    32    17    19  ar
    33    18    20  ar
    34    19    21  ar
    35    20    21  ar
    36    22    23   2
    37    22    24  am
    38     1    36   1
    39     1    37   1
    40     1    38   1
    41     2    39   1
    42     6    40   1
    43     6    41   1
    44     8    42   1
    45     9    43   1
    46    10    44   1
    47    11    45   1
    48    12    46   1
    49    13    47   1
    50    13    48   1
    51    14    49   1
    52    15    50   1
    53    15    51   1
    54    17    52   1
    55    18    53   1
    56    19    54   1
    57    20    55   1
    58    21    56   1
    59    24    57   1
    60    25    58   1
    61    28    59   1
    62    28    60   1
    63    30    61   1
    64    31    62   1
    65    32    63   1
    66    33    64   1
    67    34    65   1
@<TRIPOS>SUBSTRUCTURE
     1  MOL      2

