@<TRIPOS>MOLECULE
1os0_ligand_019
    65    67
SMALL
GAST_HUCK
****
This file was generated by PARSER (from files_GN.cpp)

@<TRIPOS>ATOM
      1 N          36.8653   40.1034   -4.3148 N.4         1 MOL       0.2351
      2 CA         36.3498   41.4188   -3.8934 C.3         1 MOL       0.0466
      3 P          35.1250   41.9622   -4.9201 P.3         1 MOL       0.0403
      4 O1P        33.9963   42.3439   -4.0913 O.co2       1 MOL      -0.6153
      5 O2P        35.4056   43.1920   -5.6446 O.co2       1 MOL      -0.6153
      6 CB         37.5482   42.4040   -3.6509 C.3         1 MOL       0.0407
      7 CG         37.3951   43.2780   -2.4483 C.ar        1 MOL      -0.0360
      8 CD1        38.3179   43.2132   -1.3751 C.ar        1 MOL      -0.0601
      9 CD2        36.3460   44.2255   -2.3722 C.ar        1 MOL      -0.0601
     10 CE1        38.2073   44.0761   -0.2715 C.ar        1 MOL      -0.0686
     11 CE2        36.2339   45.0914   -1.2674 C.ar        1 MOL      -0.0686
     12 CZ         37.1670   45.0197   -0.2204 C.ar        1 MOL      -0.0687
     13 CM         34.5044   40.8993   -6.0561 C.3         1 MOL       0.0402
     14 CA         35.2582   40.7716   -7.4365 C.3         1 MOL       0.0742
     15 CB         34.7645   39.5169   -8.2381 C.3         1 MOL       0.0021
     16 CG         35.1654   38.1952   -7.6760 C.ar        1 MOL      -0.0405
     17 CD1        34.1942   37.2137   -7.3648 C.ar        1 MOL      -0.0602
     18 CD2        36.5325   37.8877   -7.4823 C.ar        1 MOL      -0.0602
     19 CE1        34.5803   35.9556   -6.8837 C.ar        1 MOL      -0.0686
     20 CE2        36.9161   36.6254   -7.0019 C.ar        1 MOL      -0.0686
     21 CZ         35.9433   35.6561   -6.7096 C.ar        1 MOL      -0.0687
     22 C          35.1509   42.0179   -8.2145 C.2         1 MOL       0.1844
     23 O          35.6553   43.0356   -7.6977 O.2         1 MOL      -0.3964
     24 N          34.3525   42.1033   -9.2828 N.am        1 MOL      -0.2692
     25 CA         33.8811   43.2854   -9.9576 C.3         1 MOL       0.1038
     26 C          32.7129   43.8275   -9.2192 C.2         1 MOL       0.0621
     27 O          32.0629   43.1090   -8.2696 O.co2       1 MOL      -0.5664
     28 CB         33.6276   42.9918  -11.4865 C.3         1 MOL       0.0159
     29 CG         32.4371   43.6160  -12.1402 C.ar        1 MOL      -0.0392
     30 CD1        31.1278   43.2365  -11.7598 C.ar        1 MOL      -0.0602
     31 CD2        32.5876   44.6246  -13.1239 C.ar        1 MOL      -0.0602
     32 CE1        30.0021   43.8605  -12.3303 C.ar        1 MOL      -0.0686
     33 CE2        31.4626   45.2506  -13.6910 C.ar        1 MOL      -0.0686
     34 CZ         30.1688   44.8715  -13.2936 C.ar        1 MOL      -0.0687
     35 OXT        32.1450   44.9794   -9.6223 O.co2       1 MOL      -0.5664
     36 H1         37.6219   39.8157   -3.6871 H           1 MOL       0.2014
     37 H2         37.2270   40.1447   -5.2692 H           1 MOL       0.2014
     38 H3         36.1072   39.4205   -4.2321 H           1 MOL       0.2014
     39 H4         35.8906   41.2034   -2.9240 H           1 MOL       0.1089
     40 H5         37.7245   43.0286   -4.5300 H           1 MOL       0.0499
     41 H6         38.4640   41.8159   -3.5365 H           1 MOL       0.0499
     42 H7         39.0900   42.5390   -1.3959 H           1 MOL       0.0557
     43 H8         35.6633   44.3004   -3.1257 H           1 MOL       0.0557
     44 H9         38.8918   44.0266    0.4859 H           1 MOL       0.0599
     45 H10        35.4811   45.7807   -1.2372 H           1 MOL       0.0599
     46 H11        37.0960   45.6553    0.5736 H           1 MOL       0.0559
     47 H12        33.4706   41.1886   -6.2654 H           1 MOL       0.0496
     48 H13        34.4592   39.9254   -5.5650 H           1 MOL       0.0496
     49 H14        36.3250   40.6125   -7.2466 H           1 MOL       0.0576
     50 H15        35.1559   39.5731   -9.2597 H           1 MOL       0.0454
     51 H16        33.6746   39.5705   -8.3161 H           1 MOL       0.0454
     52 H17        33.1970   37.4180   -7.4901 H           1 MOL       0.0557
     53 H18        37.2531   38.5737   -7.7119 H           1 MOL       0.0557
     54 H19        33.8711   35.2518   -6.6633 H           1 MOL       0.0599
     55 H20        37.9062   36.4062   -6.8801 H           1 MOL       0.0599
     56 H21        36.2247   34.7357   -6.3650 H           1 MOL       0.0559
     57 H22        33.9222   41.2758   -9.5656 H           1 MOL       0.1876
     58 H23        34.6652   44.0515   -9.8993 H           1 MOL       0.0749
     59 H24        33.5556   41.9126  -11.6553 H           1 MOL       0.0467
     60 H25        34.5291   43.2952  -12.0260 H           1 MOL       0.0467
     61 H26        30.9878   42.5110  -11.0541 H           1 MOL       0.0557
     62 H27        33.5173   44.9282  -13.4187 H           1 MOL       0.0557
     63 H28        29.0602   43.5799  -12.0468 H           1 MOL       0.0599
     64 H29        31.5851   45.9792  -14.3981 H           1 MOL       0.0599
     65 H30        29.3508   45.3362  -13.6975 H           1 MOL       0.0559
@<TRIPOS>BOND
     1    24    25   1
     2    25    28   1
     3    25    26   1
     4    26    27  ar
     5    26    35  ar
     6    28    29   1
     7    29    30  ar
     8    29    31  ar
     9    31    33  ar
    10    33    34  ar
    11    32    34  ar
    12    30    32  ar
    13     2     1   1
    14     3     2   1
    15     2     6   1
    16     3     4  ar
    17     3     5  ar
    18    13     3   1
    19     6     7   1
    20     7     8  ar
    21     7     9  ar
    22     8    10  ar
    23     9    11  ar
    24    10    12  ar
    25    11    12  ar
    26    14    13   1
    27    14    15   1
    28    22    14   1
    29    15    16   1
    30    16    17  ar
    31    16    18  ar
    32    17    19  ar
    33    18    20  ar
    34    19    21  ar
    35    20    21  ar
    36    22    23   2
    37    22    24  am
    38     1    36   1
    39     1    37   1
    40     1    38   1
    41     2    39   1
    42     6    40   1
    43     6    41   1
    44     8    42   1
    45     9    43   1
    46    10    44   1
    47    11    45   1
    48    12    46   1
    49    13    47   1
    50    13    48   1
    51    14    49   1
    52    15    50   1
    53    15    51   1
    54    17    52   1
    55    18    53   1
    56    19    54   1
    57    20    55   1
    58    21    56   1
    59    24    57   1
    60    25    58   1
    61    28    59   1
    62    28    60   1
    63    30    61   1
    64    31    62   1
    65    32    63   1
    66    33    64   1
    67    34    65   1
@<TRIPOS>SUBSTRUCTURE
     1  MOL      2

