@<TRIPOS>MOLECULE
1os0_ligand_060
    65    67
SMALL
GAST_HUCK
****
This file was generated by PARSER (from files_GN.cpp)

@<TRIPOS>ATOM
      1 N          36.5193   40.0204   -4.8943 N.4         1 MOL       0.2351
      2 CA         35.2421   40.7325   -5.1058 C.3         1 MOL       0.0466
      3 P          35.1780   41.4649   -6.6188 P.3         1 MOL       0.0403
      4 O1P        35.8364   42.7486   -6.6027 O.co2       1 MOL      -0.6153
      5 O2P        35.9585   40.6350   -7.5074 O.co2       1 MOL      -0.6153
      6 CB         34.8740   41.6595   -3.8922 C.3         1 MOL       0.0407
      7 CG         36.0073   42.1996   -3.0875 C.ar        1 MOL      -0.0360
      8 CD1        36.4638   43.5272   -3.2534 C.ar        1 MOL      -0.0601
      9 CD2        36.6243   41.3969   -2.0937 C.ar        1 MOL      -0.0601
     10 CE1        37.5092   44.0360   -2.4606 C.ar        1 MOL      -0.0686
     11 CE2        37.6681   41.9009   -1.3023 C.ar        1 MOL      -0.0686
     12 CZ         38.1130   43.2234   -1.4831 C.ar        1 MOL      -0.0687
     13 CM         33.5957   41.5941   -7.1869 C.3         1 MOL       0.0402
     14 CA         33.2665   42.0174   -8.6707 C.3         1 MOL       0.0742
     15 CB         33.9334   43.3703   -9.0820 C.3         1 MOL       0.0021
     16 CG         33.3620   44.0160  -10.3036 C.ar        1 MOL      -0.0405
     17 CD1        32.3596   45.0185  -10.2242 C.ar        1 MOL      -0.0602
     18 CD2        33.8577   43.6659  -11.5793 C.ar        1 MOL      -0.0602
     19 CE1        31.9021   45.6720  -11.3899 C.ar        1 MOL      -0.0686
     20 CE2        33.3953   44.3096  -12.7423 C.ar        1 MOL      -0.0686
     21 CZ         32.4223   45.3175  -12.6445 C.ar        1 MOL      -0.0687
     22 C          33.4889   40.9512   -9.6549 C.2         1 MOL       0.1844
     23 O          34.5794   40.4153   -9.6891 O.2         1 MOL      -0.3964
     24 N          32.5337   40.5777  -10.5141 N.am        1 MOL      -0.2692
     25 CA         32.5170   39.4293  -11.3890 C.3         1 MOL       0.1038
     26 C          32.3142   38.2077  -10.5720 C.2         1 MOL       0.0621
     27 O          33.2634   37.7727   -9.7141 O.co2       1 MOL      -0.5664
     28 CB         33.7117   39.3397  -12.4011 C.3         1 MOL       0.0159
     29 CG         33.8734   38.0216  -13.0809 C.ar        1 MOL      -0.0392
     30 CD1        32.9785   37.6126  -14.0945 C.ar        1 MOL      -0.0602
     31 CD2        34.9284   37.1498  -12.7146 C.ar        1 MOL      -0.0602
     32 CE1        33.1457   36.3714  -14.7401 C.ar        1 MOL      -0.0686
     33 CE2        35.0878   35.9042  -13.3487 C.ar        1 MOL      -0.0686
     34 CZ         34.1988   35.5184  -14.3678 C.ar        1 MOL      -0.0687
     35 OXT        31.2249   37.4294  -10.7601 O.co2       1 MOL      -0.5664
     36 H1         36.4360   39.4631   -4.0425 H           1 MOL       0.2014
     37 H2         37.2883   40.6876   -4.8016 H           1 MOL       0.2014
     38 H3         36.7086   39.3941   -5.6811 H           1 MOL       0.2014
     39 H4         34.4978   39.9316   -5.1317 H           1 MOL       0.1089
     40 H5         34.2420   41.0941   -3.2047 H           1 MOL       0.0499
     41 H6         34.2429   42.4830   -4.2323 H           1 MOL       0.0499
     42 H7         36.0319   44.1307   -3.9545 H           1 MOL       0.0557
     43 H8         36.3066   40.4367   -1.9378 H           1 MOL       0.0557
     44 H9         37.8362   44.9959   -2.5959 H           1 MOL       0.0599
     45 H10        38.1035   41.3085   -0.5914 H           1 MOL       0.0599
     46 H11        38.8748   43.5898   -0.9086 H           1 MOL       0.0559
     47 H12        33.1036   42.3143   -6.5269 H           1 MOL       0.0496
     48 H13        33.1041   40.6344   -7.0026 H           1 MOL       0.0496
     49 H14        32.1885   42.2219   -8.6639 H           1 MOL       0.0576
     50 H15        35.0070   43.2217   -9.2243 H           1 MOL       0.0454
     51 H16        33.8261   44.0564   -8.2412 H           1 MOL       0.0454
     52 H17        31.9619   45.2849   -9.3205 H           1 MOL       0.0557
     53 H18        34.5704   42.9405  -11.6722 H           1 MOL       0.0557
     54 H19        31.1932   46.4064  -11.3230 H           1 MOL       0.0599
     55 H20        33.7743   44.0460  -13.6541 H           1 MOL       0.0599
     56 H21        32.0912   45.7904  -13.4925 H           1 MOL       0.0559
     57 H22        31.7158   41.1005  -10.4957 H           1 MOL       0.1876
     58 H23        31.6169   39.5436  -12.0010 H           1 MOL       0.0749
     59 H24        34.6462   39.5793  -11.9036 H           1 MOL       0.0467
     60 H25        33.5841   40.1127  -13.1630 H           1 MOL       0.0467
     61 H26        32.2038   38.2190  -14.3760 H           1 MOL       0.0557
     62 H27        35.5866   37.4099  -11.9754 H           1 MOL       0.0557
     63 H28        32.4985   36.0881  -15.4790 H           1 MOL       0.0599
     64 H29        35.8486   35.2823  -13.0693 H           1 MOL       0.0599
     65 H30        34.3176   34.6148  -14.8316 H           1 MOL       0.0559
@<TRIPOS>BOND
     1    24    25   1
     2    25    28   1
     3    25    26   1
     4    26    27  ar
     5    26    35  ar
     6    28    29   1
     7    29    30  ar
     8    29    31  ar
     9    31    33  ar
    10    33    34  ar
    11    32    34  ar
    12    30    32  ar
    13     2     1   1
    14     3     2   1
    15     2     6   1
    16     3     4  ar
    17     3     5  ar
    18    13     3   1
    19     6     7   1
    20     7     8  ar
    21     7     9  ar
    22     8    10  ar
    23     9    11  ar
    24    10    12  ar
    25    11    12  ar
    26    14    13   1
    27    14    15   1
    28    22    14   1
    29    15    16   1
    30    16    17  ar
    31    16    18  ar
    32    17    19  ar
    33    18    20  ar
    34    19    21  ar
    35    20    21  ar
    36    22    23   2
    37    22    24  am
    38     1    36   1
    39     1    37   1
    40     1    38   1
    41     2    39   1
    42     6    40   1
    43     6    41   1
    44     8    42   1
    45     9    43   1
    46    10    44   1
    47    11    45   1
    48    12    46   1
    49    13    47   1
    50    13    48   1
    51    14    49   1
    52    15    50   1
    53    15    51   1
    54    17    52   1
    55    18    53   1
    56    19    54   1
    57    20    55   1
    58    21    56   1
    59    24    57   1
    60    25    58   1
    61    28    59   1
    62    28    60   1
    63    30    61   1
    64    31    62   1
    65    32    63   1
    66    33    64   1
    67    34    65   1
@<TRIPOS>SUBSTRUCTURE
     1  MOL      2

