@<TRIPOS>MOLECULE
1os0_ligand_011
    65    67
SMALL
GAST_HUCK
****
This file was generated by PARSER (from files_GN.cpp)

@<TRIPOS>ATOM
      1 N          34.2963   44.9684  -14.2943 N.4         1 MOL       0.2351
      2 CA         32.9797   45.6091  -14.1209 C.3         1 MOL       0.0466
      3 P          32.3249   45.2888  -12.6024 P.3         1 MOL       0.0403
      4 O1P        32.3544   46.5274  -11.8658 O.co2       1 MOL      -0.6153
      5 O2P        30.8988   45.1073  -12.7218 O.co2       1 MOL      -0.6153
      6 CB         32.0457   45.2193  -15.3098 C.3         1 MOL       0.0407
      7 CG         32.5849   45.6122  -16.6468 C.ar        1 MOL      -0.0360
      8 CD1        32.3837   46.9243  -17.1420 C.ar        1 MOL      -0.0601
      9 CD2        33.2805   44.6852  -17.4610 C.ar        1 MOL      -0.0601
     10 CE1        32.8600   47.2998  -18.4151 C.ar        1 MOL      -0.0686
     11 CE2        33.7601   45.0611  -18.7336 C.ar        1 MOL      -0.0686
     12 CZ         33.5481   46.3676  -19.2075 C.ar        1 MOL      -0.0687
     13 CM         33.0143   44.1385  -11.5731 C.3         1 MOL       0.0402
     14 CA         31.9893   43.1806  -10.8419 C.3         1 MOL       0.0742
     15 CB         31.6920   41.8900  -11.6980 C.3         1 MOL       0.0021
     16 CG         30.2678   41.4448  -11.6504 C.ar        1 MOL      -0.0405
     17 CD1        29.7979   40.6406  -10.5847 C.ar        1 MOL      -0.0602
     18 CD2        29.3734   41.7885  -12.6930 C.ar        1 MOL      -0.0602
     19 CE1        28.4723   40.1702  -10.5721 C.ar        1 MOL      -0.0686
     20 CE2        28.0477   41.3225  -12.6739 C.ar        1 MOL      -0.0686
     21 CZ         27.5994   40.5053  -11.6213 C.ar        1 MOL      -0.0687
     22 C          32.3999   42.8841   -9.4615 C.2         1 MOL       0.1844
     23 O          31.9064   43.5598   -8.5564 O.2         1 MOL      -0.3964
     24 N          33.3733   42.0220   -9.1698 N.am        1 MOL      -0.2692
     25 CA         33.9936   41.8484   -7.8723 C.3         1 MOL       0.1038
     26 C          35.0890   42.8357   -7.7318 C.2         1 MOL       0.0621
     27 O          35.4931   43.2158   -6.4996 O.co2       1 MOL      -0.5664
     28 CB         34.5238   40.3926   -7.6638 C.3         1 MOL       0.0159
     29 CG         33.4456   39.4016   -7.3740 C.ar        1 MOL      -0.0392
     30 CD1        32.4715   39.0884   -8.3539 C.ar        1 MOL      -0.0602
     31 CD2        33.3681   38.7544   -6.1141 C.ar        1 MOL      -0.0602
     32 CE1        31.4461   38.1640   -8.0832 C.ar        1 MOL      -0.0686
     33 CE2        32.3438   37.8311   -5.8450 C.ar        1 MOL      -0.0686
     34 CZ         31.3763   37.5401   -6.8268 C.ar        1 MOL      -0.0687
     35 OXT        35.6832   43.4107   -8.8032 O.co2       1 MOL      -0.5664
     36 H1         34.7200   45.2953  -15.1684 H           1 MOL       0.2014
     37 H2         34.1799   43.9520  -14.3355 H           1 MOL       0.2014
     38 H3         34.9118   45.2145  -13.5114 H           1 MOL       0.2014
     39 H4         33.1557   46.6866  -14.1824 H           1 MOL       0.1089
     40 H5         31.0757   45.7098  -15.2102 H           1 MOL       0.0499
     41 H6         31.8635   44.1431  -15.2814 H           1 MOL       0.0499
     42 H7         31.8765   47.6181  -16.5849 H           1 MOL       0.0557
     43 H8         33.4463   43.7322  -17.1304 H           1 MOL       0.0557
     44 H9         32.6935   48.2455  -18.7626 H           1 MOL       0.0599
     45 H10        34.2596   44.3801  -19.3085 H           1 MOL       0.0599
     46 H11        33.8953   46.6356  -20.1315 H           1 MOL       0.0559
     47 H12        33.6091   44.6732  -10.8224 H           1 MOL       0.0496
     48 H13        33.7245   43.5276  -12.1363 H           1 MOL       0.0496
     49 H14        31.0424   43.7330  -10.7520 H           1 MOL       0.0576
     50 H15        32.3447   41.0646  -11.3805 H           1 MOL       0.0454
     51 H16        31.9613   42.0903  -12.7472 H           1 MOL       0.0454
     52 H17        30.4241   40.3931   -9.8134 H           1 MOL       0.0557
     53 H18        29.6774   42.3845  -13.4677 H           1 MOL       0.0557
     54 H19        28.1490   39.5891   -9.7992 H           1 MOL       0.0599
     55 H20        27.4021   41.5758  -13.4311 H           1 MOL       0.0599
     56 H21        26.6349   40.1575  -11.6144 H           1 MOL       0.0559
     57 H22        33.8002   41.5653   -9.9205 H           1 MOL       0.1876
     58 H23        33.2783   42.0591   -7.0675 H           1 MOL       0.0749
     59 H24        35.2354   40.3952   -6.8328 H           1 MOL       0.0467
     60 H25        35.0847   40.0734   -8.5491 H           1 MOL       0.0467
     61 H26        32.5119   39.5274   -9.2809 H           1 MOL       0.0557
     62 H27        34.0600   38.9544   -5.3873 H           1 MOL       0.0557
     63 H28        30.7507   37.9487   -8.7962 H           1 MOL       0.0599
     64 H29        32.2993   37.3757   -4.9289 H           1 MOL       0.0599
     65 H30        30.6298   36.8747   -6.6250 H           1 MOL       0.0559
@<TRIPOS>BOND
     1    24    25   1
     2    25    28   1
     3    25    26   1
     4    26    27  ar
     5    26    35  ar
     6    28    29   1
     7    29    30  ar
     8    29    31  ar
     9    31    33  ar
    10    33    34  ar
    11    32    34  ar
    12    30    32  ar
    13     2     1   1
    14     3     2   1
    15     2     6   1
    16     3     4  ar
    17     3     5  ar
    18    13     3   1
    19     6     7   1
    20     7     8  ar
    21     7     9  ar
    22     8    10  ar
    23     9    11  ar
    24    10    12  ar
    25    11    12  ar
    26    14    13   1
    27    14    15   1
    28    22    14   1
    29    15    16   1
    30    16    17  ar
    31    16    18  ar
    32    17    19  ar
    33    18    20  ar
    34    19    21  ar
    35    20    21  ar
    36    22    23   2
    37    22    24  am
    38     1    36   1
    39     1    37   1
    40     1    38   1
    41     2    39   1
    42     6    40   1
    43     6    41   1
    44     8    42   1
    45     9    43   1
    46    10    44   1
    47    11    45   1
    48    12    46   1
    49    13    47   1
    50    13    48   1
    51    14    49   1
    52    15    50   1
    53    15    51   1
    54    17    52   1
    55    18    53   1
    56    19    54   1
    57    20    55   1
    58    21    56   1
    59    24    57   1
    60    25    58   1
    61    28    59   1
    62    28    60   1
    63    30    61   1
    64    31    62   1
    65    32    63   1
    66    33    64   1
    67    34    65   1
@<TRIPOS>SUBSTRUCTURE
     1  MOL      2

