@<TRIPOS>MOLECULE
1os0_ligand_067
    65    67
SMALL
GAST_HUCK
****
This file was generated by PARSER (from files_GN.cpp)

@<TRIPOS>ATOM
      1 N          37.0890   40.6485   -5.2250 N.4         1 MOL       0.2351
      2 CA         35.6143   40.7845   -5.2601 C.3         1 MOL       0.0466
      3 P          35.1533   41.4687   -6.7258 P.3         1 MOL       0.0403
      4 O1P        35.7095   42.7932   -6.8691 O.co2       1 MOL      -0.6153
      5 O2P        35.7654   40.6711   -7.7564 O.co2       1 MOL      -0.6153
      6 CB         35.0665   41.4756   -3.9624 C.3         1 MOL       0.0407
      7 CG         36.0680   42.0736   -3.0263 C.ar        1 MOL      -0.0360
      8 CD1        36.3937   43.4466   -3.1127 C.ar        1 MOL      -0.0601
      9 CD2        36.6976   41.2887   -2.0302 C.ar        1 MOL      -0.0601
     10 CE1        37.3147   44.0247   -2.2124 C.ar        1 MOL      -0.0686
     11 CE2        37.6223   41.8658   -1.1338 C.ar        1 MOL      -0.0686
     12 CZ         37.9256   43.2313   -1.2279 C.ar        1 MOL      -0.0687
     13 CM         33.4963   41.5022   -7.0174 C.3         1 MOL       0.0402
     14 CA         32.9349   42.1839   -8.3336 C.3         1 MOL       0.0742
     15 CB         33.7112   43.4868   -8.7194 C.3         1 MOL       0.0021
     16 CG         33.3030   44.1798   -9.9716 C.ar        1 MOL      -0.0405
     17 CD1        31.9885   44.6888  -10.1179 C.ar        1 MOL      -0.0602
     18 CD2        34.2524   44.4521  -10.9903 C.ar        1 MOL      -0.0602
     19 CE1        31.6399   45.4584  -11.2439 C.ar        1 MOL      -0.0686
     20 CE2        33.9033   45.2178  -12.1189 C.ar        1 MOL      -0.0686
     21 CZ         32.5947   45.7162  -12.2463 C.ar        1 MOL      -0.0687
     22 C          32.7551   41.2850   -9.4672 C.2         1 MOL       0.1844
     23 O          33.6638   40.5158   -9.7775 O.2         1 MOL      -0.3964
     24 N          31.7066   41.4268  -10.2790 N.am        1 MOL      -0.2692
     25 CA         31.4081   40.6463  -11.4438 C.3         1 MOL       0.1038
     26 C          32.5526   40.4980  -12.3713 C.2         1 MOL       0.0621
     27 O          32.5137   39.5773  -13.3630 O.co2       1 MOL      -0.5664
     28 CB         30.1261   41.1792  -12.1629 C.3         1 MOL       0.0159
     29 CG         30.1853   42.5250  -12.8161 C.ar        1 MOL      -0.0392
     30 CD1        29.1668   43.4826  -12.5977 C.ar        1 MOL      -0.0602
     31 CD2        31.1942   42.8314  -13.7696 C.ar        1 MOL      -0.0602
     32 CE1        29.1435   44.6957  -13.3070 C.ar        1 MOL      -0.0686
     33 CE2        31.1742   44.0460  -14.4725 C.ar        1 MOL      -0.0686
     34 CZ         30.1552   44.9829  -14.2472 C.ar        1 MOL      -0.0687
     35 OXT        33.6158   41.3274  -12.3399 O.co2       1 MOL      -0.5664
     36 H1         37.3743   40.1923   -4.3547 H           1 MOL       0.2014
     37 H2         37.5234   41.5746   -5.2741 H           1 MOL       0.2014
     38 H3         37.4034   40.0830   -6.0146 H           1 MOL       0.2014
     39 H4         35.2288   39.7585   -5.2723 H           1 MOL       0.1089
     40 H5         34.4994   40.7280   -3.4030 H           1 MOL       0.0499
     41 H6         34.3356   42.2505   -4.1999 H           1 MOL       0.0499
     42 H7         35.9513   44.0359   -3.8159 H           1 MOL       0.0557
     43 H8         36.4894   40.2905   -1.9463 H           1 MOL       0.0557
     44 H9         37.5404   45.0191   -2.2857 H           1 MOL       0.0599
     45 H10        38.0706   41.2842   -0.4189 H           1 MOL       0.0599
     46 H11        38.5998   43.6522   -0.5767 H           1 MOL       0.0559
     47 H12        33.0435   42.0191   -6.1720 H           1 MOL       0.0496
     48 H13        33.1202   40.4748   -6.9623 H           1 MOL       0.0496
     49 H14        31.9183   42.4857   -8.0559 H           1 MOL       0.0576
     50 H15        34.7942   43.2415   -8.7580 H           1 MOL       0.0454
     51 H16        33.5656   44.1923   -7.8964 H           1 MOL       0.0454
     52 H17        31.2873   44.5307   -9.3880 H           1 MOL       0.0557
     53 H18        35.2119   44.1202  -10.9037 H           1 MOL       0.0557
     54 H19        30.6924   45.8299  -11.3333 H           1 MOL       0.0599
     55 H20        34.6022   45.4084  -12.8436 H           1 MOL       0.0599
     56 H21        32.3432   46.2796  -13.0607 H           1 MOL       0.0559
     57 H22        31.0508   42.0950  -10.0241 H           1 MOL       0.1876
     58 H23        31.1646   39.6439  -11.0866 H           1 MOL       0.0749
     59 H24        29.3268   41.1711  -11.4114 H           1 MOL       0.0467
     60 H25        29.8265   40.4519  -12.9191 H           1 MOL       0.0467
     61 H26        28.4015   43.2888  -11.9443 H           1 MOL       0.0557
     62 H27        31.9263   42.1541  -13.9912 H           1 MOL       0.0557
     63 H28        28.3885   45.3655  -13.1560 H           1 MOL       0.0599
     64 H29        31.9009   44.2407  -15.1690 H           1 MOL       0.0599
     65 H30        30.1334   45.8573  -14.7768 H           1 MOL       0.0559
@<TRIPOS>BOND
     1    24    25   1
     2    25    28   1
     3    25    26   1
     4    26    27  ar
     5    26    35  ar
     6    28    29   1
     7    29    30  ar
     8    29    31  ar
     9    31    33  ar
    10    33    34  ar
    11    32    34  ar
    12    30    32  ar
    13     2     1   1
    14     3     2   1
    15     2     6   1
    16     3     4  ar
    17     3     5  ar
    18    13     3   1
    19     6     7   1
    20     7     8  ar
    21     7     9  ar
    22     8    10  ar
    23     9    11  ar
    24    10    12  ar
    25    11    12  ar
    26    14    13   1
    27    14    15   1
    28    22    14   1
    29    15    16   1
    30    16    17  ar
    31    16    18  ar
    32    17    19  ar
    33    18    20  ar
    34    19    21  ar
    35    20    21  ar
    36    22    23   2
    37    22    24  am
    38     1    36   1
    39     1    37   1
    40     1    38   1
    41     2    39   1
    42     6    40   1
    43     6    41   1
    44     8    42   1
    45     9    43   1
    46    10    44   1
    47    11    45   1
    48    12    46   1
    49    13    47   1
    50    13    48   1
    51    14    49   1
    52    15    50   1
    53    15    51   1
    54    17    52   1
    55    18    53   1
    56    19    54   1
    57    20    55   1
    58    21    56   1
    59    24    57   1
    60    25    58   1
    61    28    59   1
    62    28    60   1
    63    30    61   1
    64    31    62   1
    65    32    63   1
    66    33    64   1
    67    34    65   1
@<TRIPOS>SUBSTRUCTURE
     1  MOL      2

