@<TRIPOS>MOLECULE
1os0_ligand_074
    65    67
SMALL
GAST_HUCK
****
This file was generated by PARSER (from files_GN.cpp)

@<TRIPOS>ATOM
      1 N          33.7855   42.6028   -6.0887 N.4         1 MOL       0.2351
      2 CA         35.0104   41.8429   -6.3981 C.3         1 MOL       0.0466
      3 P          34.7266   40.8916   -7.7473 P.3         1 MOL       0.0403
      4 O1P        34.5946   41.8175   -8.8473 O.co2       1 MOL      -0.6153
      5 O2P        35.8936   40.1042   -8.0640 O.co2       1 MOL      -0.6153
      6 CB         35.5076   41.0801   -5.1281 C.3         1 MOL       0.0407
      7 CG         35.7439   41.9873   -3.9635 C.ar        1 MOL      -0.0360
      8 CD1        36.7645   42.9707   -4.0039 C.ar        1 MOL      -0.0601
      9 CD2        34.9353   41.9099   -2.8051 C.ar        1 MOL      -0.0601
     10 CE1        36.9552   43.8593   -2.9285 C.ar        1 MOL      -0.0686
     11 CE2        35.1304   42.7928   -1.7250 C.ar        1 MOL      -0.0686
     12 CZ         36.1371   43.7717   -1.7901 C.ar        1 MOL      -0.0687
     13 CM         33.3684   39.9121   -7.6639 C.3         1 MOL       0.0402
     14 CA         32.9353   39.1770   -8.9804 C.3         1 MOL       0.0742
     15 CB         32.1274   37.8635   -8.6705 C.3         1 MOL       0.0021
     16 CG         32.9429   36.7098   -8.2038 C.ar        1 MOL      -0.0405
     17 CD1        33.8110   36.0415   -9.1008 C.ar        1 MOL      -0.0602
     18 CD2        32.8114   36.2076   -6.8899 C.ar        1 MOL      -0.0602
     19 CE1        34.5267   34.9004   -8.6959 C.ar        1 MOL      -0.0686
     20 CE2        33.5245   35.0643   -6.4818 C.ar        1 MOL      -0.0686
     21 CZ         34.3811   34.4087   -7.3854 C.ar        1 MOL      -0.0687
     22 C          32.1741   40.0685   -9.8739 C.2         1 MOL       0.1844
     23 O          30.9551   40.1337   -9.7650 O.2         1 MOL      -0.3964
     24 N          32.8060   40.8114  -10.7754 N.am        1 MOL      -0.2692
     25 CA         32.2218   41.6581  -11.7821 C.3         1 MOL       0.1038
     26 C          33.3293   42.1333  -12.6392 C.2         1 MOL       0.0621
     27 O          33.3795   41.8087  -13.9483 O.co2       1 MOL      -0.5664
     28 CB         31.3942   42.8577  -11.2222 C.3         1 MOL       0.0159
     29 CG         30.5575   43.5186  -12.2657 C.ar        1 MOL      -0.0392
     30 CD1        29.2435   43.0694  -12.5214 C.ar        1 MOL      -0.0602
     31 CD2        31.0735   44.5757  -13.0509 C.ar        1 MOL      -0.0602
     32 CE1        28.4587   43.6605  -13.5304 C.ar        1 MOL      -0.0686
     33 CE2        30.2949   45.1637  -14.0686 C.ar        1 MOL      -0.0686
     34 CZ         28.9872   44.7081  -14.3071 C.ar        1 MOL      -0.0687
     35 OXT        34.2917   42.9422  -12.1412 O.co2       1 MOL      -0.5664
     36 H1         33.9758   43.2952   -5.3639 H           1 MOL       0.2014
     37 H2         33.0664   41.9625   -5.7426 H           1 MOL       0.2014
     38 H3         33.4491   43.0815   -6.9289 H           1 MOL       0.2014
     39 H4         35.7824   42.5665   -6.6784 H           1 MOL       0.1089
     40 H5         36.4417   40.5578   -5.3508 H           1 MOL       0.0499
     41 H6         34.7681   40.3173   -4.8687 H           1 MOL       0.0499
     42 H7         37.3713   43.0526   -4.8233 H           1 MOL       0.0557
     43 H8         34.1888   41.2186   -2.7411 H           1 MOL       0.0557
     44 H9         37.6837   44.5740   -2.9786 H           1 MOL       0.0599
     45 H10        34.5337   42.7286   -0.8956 H           1 MOL       0.0599
     46 H11        36.2727   44.4201   -1.0094 H           1 MOL       0.0559
     47 H12        32.5329   40.5093   -7.3032 H           1 MOL       0.0496
     48 H13        33.5798   39.1749   -6.8910 H           1 MOL       0.0496
     49 H14        33.8365   38.8600   -9.5167 H           1 MOL       0.0576
     50 H15        31.6064   37.5239   -9.5707 H           1 MOL       0.0454
     51 H16        31.3496   38.1086   -7.9387 H           1 MOL       0.0454
     52 H17        33.9159   36.3723  -10.0648 H           1 MOL       0.0557
     53 H18        32.1925   36.6674   -6.2200 H           1 MOL       0.0557
     54 H19        35.1429   34.4183   -9.3535 H           1 MOL       0.0599
     55 H20        33.4125   34.7008   -5.5318 H           1 MOL       0.0599
     56 H21        34.8880   33.5685   -7.0930 H           1 MOL       0.0559
     57 H22        33.7760   40.7320  -10.7886 H           1 MOL       0.1876
     58 H23        31.5608   41.0223  -12.3796 H           1 MOL       0.0749
     59 H24        32.0565   43.5909  -10.7537 H           1 MOL       0.0467
     60 H25        30.7376   42.5125  -10.4226 H           1 MOL       0.0467
     61 H26        28.8414   42.3005  -11.9758 H           1 MOL       0.0557
     62 H27        32.0241   44.9221  -12.8973 H           1 MOL       0.0557
     63 H28        27.5063   43.3263  -13.7050 H           1 MOL       0.0599
     64 H29        30.6825   45.9195  -14.6383 H           1 MOL       0.0599
     65 H30        28.4215   45.1315  -15.0458 H           1 MOL       0.0559
@<TRIPOS>BOND
     1    24    25   1
     2    25    28   1
     3    25    26   1
     4    26    27  ar
     5    26    35  ar
     6    28    29   1
     7    29    30  ar
     8    29    31  ar
     9    31    33  ar
    10    33    34  ar
    11    32    34  ar
    12    30    32  ar
    13     2     1   1
    14     3     2   1
    15     2     6   1
    16     3     4  ar
    17     3     5  ar
    18    13     3   1
    19     6     7   1
    20     7     8  ar
    21     7     9  ar
    22     8    10  ar
    23     9    11  ar
    24    10    12  ar
    25    11    12  ar
    26    14    13   1
    27    14    15   1
    28    22    14   1
    29    15    16   1
    30    16    17  ar
    31    16    18  ar
    32    17    19  ar
    33    18    20  ar
    34    19    21  ar
    35    20    21  ar
    36    22    23   2
    37    22    24  am
    38     1    36   1
    39     1    37   1
    40     1    38   1
    41     2    39   1
    42     6    40   1
    43     6    41   1
    44     8    42   1
    45     9    43   1
    46    10    44   1
    47    11    45   1
    48    12    46   1
    49    13    47   1
    50    13    48   1
    51    14    49   1
    52    15    50   1
    53    15    51   1
    54    17    52   1
    55    18    53   1
    56    19    54   1
    57    20    55   1
    58    21    56   1
    59    24    57   1
    60    25    58   1
    61    28    59   1
    62    28    60   1
    63    30    61   1
    64    31    62   1
    65    32    63   1
    66    33    64   1
    67    34    65   1
@<TRIPOS>SUBSTRUCTURE
     1  MOL      2

