@<TRIPOS>MOLECULE
1os0_ligand_008
    65    67
SMALL
GAST_HUCK
****
This file was generated by PARSER (from files_GN.cpp)

@<TRIPOS>ATOM
      1 N          34.9676   41.8156   -2.3582 N.4         1 MOL       0.2351
      2 CA         36.1908   42.4777   -2.8487 C.3         1 MOL       0.0466
      3 P          36.4595   42.0930   -4.4526 P.3         1 MOL       0.0403
      4 O1P        37.5571   42.9391   -4.8716 O.co2       1 MOL      -0.6153
      5 O2P        36.9471   40.7368   -4.5819 O.co2       1 MOL      -0.6153
      6 CB         37.4082   42.1150   -1.9375 C.3         1 MOL       0.0407
      7 CG         37.7044   43.1376   -0.9007 C.ar        1 MOL      -0.0360
      8 CD1        37.7705   42.7962    0.4752 C.ar        1 MOL      -0.0601
      9 CD2        38.0082   44.4660   -1.2730 C.ar        1 MOL      -0.0601
     10 CE1        38.1187   43.7653    1.4388 C.ar        1 MOL      -0.0686
     11 CE2        38.3604   45.4337   -0.3097 C.ar        1 MOL      -0.0686
     12 CZ         38.4118   45.0785    1.0543 C.ar        1 MOL      -0.0687
     13 CM         35.2094   42.4148   -5.5229 C.3         1 MOL       0.0402
     14 CA         35.3895   41.7639   -6.9471 C.3         1 MOL       0.0742
     15 CB         35.0036   40.2293   -6.9879 C.3         1 MOL       0.0021
     16 CG         35.9123   39.3813   -7.8158 C.ar        1 MOL      -0.0405
     17 CD1        36.0120   39.5842   -9.2136 C.ar        1 MOL      -0.0602
     18 CD2        36.6894   38.3467   -7.2328 C.ar        1 MOL      -0.0602
     19 CE1        36.8487   38.7772  -10.0062 C.ar        1 MOL      -0.0686
     20 CE2        37.5291   37.5411   -8.0226 C.ar        1 MOL      -0.0686
     21 CZ         37.6093   37.7528   -9.4095 C.ar        1 MOL      -0.0687
     22 C          34.7496   42.5686   -7.9842 C.2         1 MOL       0.1844
     23 O          35.2797   43.6448   -8.2972 O.2         1 MOL      -0.3964
     24 N          33.5821   42.2392   -8.5592 N.am        1 MOL      -0.2692
     25 CA         32.9950   42.7511   -9.7639 C.3         1 MOL       0.1038
     26 C          33.5468   41.9760  -10.9014 C.2         1 MOL       0.0621
     27 O          33.4277   40.6301  -10.9136 O.co2       1 MOL      -0.5664
     28 CB         33.0353   44.3037   -9.9376 C.3         1 MOL       0.0159
     29 CG         32.4417   44.7946  -11.2094 C.ar        1 MOL      -0.0392
     30 CD1        33.2597   45.1718  -12.3053 C.ar        1 MOL      -0.0602
     31 CD2        31.0374   44.8396  -11.3675 C.ar        1 MOL      -0.0602
     32 CE1        32.6861   45.5389  -13.5376 C.ar        1 MOL      -0.0686
     33 CE2        30.4593   45.2007  -12.5982 C.ar        1 MOL      -0.0686
     34 CZ         31.2863   45.5288  -13.6909 C.ar        1 MOL      -0.0687
     35 OXT        34.1507   42.5576  -11.9671 O.co2       1 MOL      -0.5664
     36 H1         34.8766   41.9306   -1.3434 H           1 MOL       0.2014
     37 H2         35.0212   40.8095   -2.5779 H           1 MOL       0.2014
     38 H3         34.1510   42.2383   -2.8098 H           1 MOL       0.2014
     39 H4         36.0207   43.5554   -2.8168 H           1 MOL       0.1089
     40 H5         38.3293   42.0027   -2.5147 H           1 MOL       0.0499
     41 H6         37.2184   41.1401   -1.4795 H           1 MOL       0.0499
     42 H7         37.5815   41.8410    0.7800 H           1 MOL       0.0557
     43 H8         37.9907   44.7331   -2.2632 H           1 MOL       0.0557
     44 H9         38.1630   43.5045    2.4324 H           1 MOL       0.0599
     45 H10        38.5808   46.3941   -0.5924 H           1 MOL       0.0599
     46 H11        38.6474   45.7831    1.7529 H           1 MOL       0.0559
     47 H12        35.1429   43.5047   -5.6104 H           1 MOL       0.0496
     48 H13        34.2706   42.0727   -5.0833 H           1 MOL       0.0496
     49 H14        36.4615   41.8080   -7.1952 H           1 MOL       0.0576
     50 H15        33.9818   40.0796   -7.3515 H           1 MOL       0.0454
     51 H16        34.9904   39.8382   -5.9656 H           1 MOL       0.0454
     52 H17        35.4626   40.3167   -9.6655 H           1 MOL       0.0557
     53 H18        36.6462   38.1697   -6.2314 H           1 MOL       0.0557
     54 H19        36.9108   38.9280  -11.0177 H           1 MOL       0.0599
     55 H20        38.0874   36.8034   -7.5848 H           1 MOL       0.0599
     56 H21        38.2176   37.1667   -9.9858 H           1 MOL       0.0559
     57 H22        33.1241   41.4729   -8.1741 H           1 MOL       0.1876
     58 H23        31.9352   42.4723   -9.7064 H           1 MOL       0.0749
     59 H24        34.0742   44.6408   -9.8849 H           1 MOL       0.0467
     60 H25        32.5024   44.7705   -9.1053 H           1 MOL       0.0467
     61 H26        34.2838   45.1590  -12.2250 H           1 MOL       0.0557
     62 H27        30.4265   44.5882  -10.5932 H           1 MOL       0.0557
     63 H28        33.2875   45.7803  -14.3308 H           1 MOL       0.0599
     64 H29        29.4381   45.1996  -12.7081 H           1 MOL       0.0599
     65 H30        30.8740   45.7868  -14.5954 H           1 MOL       0.0559
@<TRIPOS>BOND
     1    24    25   1
     2    25    28   1
     3    25    26   1
     4    26    27  ar
     5    26    35  ar
     6    28    29   1
     7    29    30  ar
     8    29    31  ar
     9    31    33  ar
    10    33    34  ar
    11    32    34  ar
    12    30    32  ar
    13     2     1   1
    14     3     2   1
    15     2     6   1
    16     3     4  ar
    17     3     5  ar
    18    13     3   1
    19     6     7   1
    20     7     8  ar
    21     7     9  ar
    22     8    10  ar
    23     9    11  ar
    24    10    12  ar
    25    11    12  ar
    26    14    13   1
    27    14    15   1
    28    22    14   1
    29    15    16   1
    30    16    17  ar
    31    16    18  ar
    32    17    19  ar
    33    18    20  ar
    34    19    21  ar
    35    20    21  ar
    36    22    23   2
    37    22    24  am
    38     1    36   1
    39     1    37   1
    40     1    38   1
    41     2    39   1
    42     6    40   1
    43     6    41   1
    44     8    42   1
    45     9    43   1
    46    10    44   1
    47    11    45   1
    48    12    46   1
    49    13    47   1
    50    13    48   1
    51    14    49   1
    52    15    50   1
    53    15    51   1
    54    17    52   1
    55    18    53   1
    56    19    54   1
    57    20    55   1
    58    21    56   1
    59    24    57   1
    60    25    58   1
    61    28    59   1
    62    28    60   1
    63    30    61   1
    64    31    62   1
    65    32    63   1
    66    33    64   1
    67    34    65   1
@<TRIPOS>SUBSTRUCTURE
     1  MOL      2

