@<TRIPOS>MOLECULE
1os0_ligand_021
    65    67
SMALL
GAST_HUCK
****
This file was generated by PARSER (from files_GN.cpp)

@<TRIPOS>ATOM
      1 N          34.9899   41.7961   -4.2771 N.4         1 MOL       0.2351
      2 CA         36.0427   41.2929   -5.1864 C.3         1 MOL       0.0466
      3 P          35.5542   41.4529   -6.7878 P.3         1 MOL       0.0403
      4 O1P        35.8667   42.8160   -7.1361 O.co2       1 MOL      -0.6153
      5 O2P        36.4205   40.6904   -7.6515 O.co2       1 MOL      -0.6153
      6 CB         36.4486   39.8564   -4.7334 C.3         1 MOL       0.0407
      7 CG         37.7947   39.3705   -5.1550 C.ar        1 MOL      -0.0360
      8 CD1        37.9276   38.3446   -6.1197 C.ar        1 MOL      -0.0601
      9 CD2        38.9645   39.8396   -4.5055 C.ar        1 MOL      -0.0601
     10 CE1        39.1855   37.7851   -6.4091 C.ar        1 MOL      -0.0686
     11 CE2        40.2223   39.2762   -4.7921 C.ar        1 MOL      -0.0686
     12 CZ         40.3326   38.2463   -5.7398 C.ar        1 MOL      -0.0687
     13 CM         33.9422   41.1927   -7.2078 C.3         1 MOL       0.0402
     14 CA         33.5220   39.7505   -7.6836 C.3         1 MOL       0.0742
     15 CB         32.9480   38.8813   -6.5070 C.3         1 MOL       0.0021
     16 CG         32.6647   37.4760   -6.8996 C.ar        1 MOL      -0.0405
     17 CD1        33.7091   36.5196   -6.9234 C.ar        1 MOL      -0.0602
     18 CD2        31.3758   37.0806   -7.3338 C.ar        1 MOL      -0.0602
     19 CE1        33.4761   35.2120   -7.3920 C.ar        1 MOL      -0.0686
     20 CE2        31.1489   35.7811   -7.8261 C.ar        1 MOL      -0.0686
     21 CZ         32.2017   34.8471   -7.8572 C.ar        1 MOL      -0.0687
     22 C          32.5955   39.8101   -8.8267 C.2         1 MOL       0.1844
     23 O          31.3860   39.8052   -8.6201 O.2         1 MOL      -0.3964
     24 N          33.0635   40.0089  -10.0556 N.am        1 MOL      -0.2692
     25 CA         32.2970   40.1731  -11.2596 C.3         1 MOL       0.1038
     26 C          31.6102   38.8925  -11.6081 C.2         1 MOL       0.0621
     27 O          30.2512   38.8178  -11.6462 O.co2       1 MOL      -0.5664
     28 CB         33.2283   40.6628  -12.4161 C.3         1 MOL       0.0159
     29 CG         33.5898   42.1069  -12.3168 C.ar        1 MOL      -0.0392
     30 CD1        33.9311   42.6907  -11.0672 C.ar        1 MOL      -0.0602
     31 CD2        33.6166   42.9368  -13.4725 C.ar        1 MOL      -0.0602
     32 CE1        34.2646   44.0565  -10.9782 C.ar        1 MOL      -0.0686
     33 CE2        33.9863   44.2896  -13.3826 C.ar        1 MOL      -0.0686
     34 CZ         34.3054   44.8583  -12.1377 C.ar        1 MOL      -0.0687
     35 OXT        32.3265   37.7644  -11.8712 O.co2       1 MOL      -0.5664
     36 H1         35.3217   41.7359   -3.3146 H           1 MOL       0.2014
     37 H2         34.1539   41.2272   -4.3745 H           1 MOL       0.2014
     38 H3         34.7557   42.7702   -4.4804 H           1 MOL       0.2014
     39 H4         36.9078   41.9449   -5.0333 H           1 MOL       0.1089
     40 H5         35.6807   39.1539   -5.0545 H           1 MOL       0.0499
     41 H6         36.4553   39.8164   -3.6406 H           1 MOL       0.0499
     42 H7         37.1052   37.9778   -6.6032 H           1 MOL       0.0557
     43 H8         38.9019   40.5682   -3.7923 H           1 MOL       0.0557
     44 H9         39.2665   37.0348   -7.1032 H           1 MOL       0.0599
     45 H10        41.0614   39.6143   -4.3046 H           1 MOL       0.0599
     46 H11        41.2491   37.8328   -5.9475 H           1 MOL       0.0559
     47 H12        33.7245   41.9194   -7.9996 H           1 MOL       0.0496
     48 H13        33.3172   41.5136   -6.3681 H           1 MOL       0.0496
     49 H14        34.4176   39.2254   -8.0283 H           1 MOL       0.0576
     50 H15        32.0438   39.3493   -6.1158 H           1 MOL       0.0454
     51 H16        33.6527   38.8718   -5.6706 H           1 MOL       0.0454
     52 H17        34.6520   36.7795   -6.6260 H           1 MOL       0.0557
     53 H18        30.5988   37.7490   -7.3387 H           1 MOL       0.0557
     54 H19        34.2441   34.5356   -7.4156 H           1 MOL       0.0599
     55 H20        30.2236   35.5217   -8.1817 H           1 MOL       0.0599
     56 H21        32.0473   33.9101   -8.2402 H           1 MOL       0.0559
     57 H22        34.0286   40.0337  -10.1494 H           1 MOL       0.1876
     58 H23        31.5292   40.9217  -11.0927 H           1 MOL       0.0749
     59 H24        32.7368   40.4747  -13.3785 H           1 MOL       0.0467
     60 H25        34.1463   40.0676  -12.4245 H           1 MOL       0.0467
     61 H26        33.9288   42.1063  -10.2151 H           1 MOL       0.0557
     62 H27        33.3774   42.5527  -14.3958 H           1 MOL       0.0557
     63 H28        34.4924   44.4598  -10.0647 H           1 MOL       0.0599
     64 H29        34.0316   44.8654  -14.2296 H           1 MOL       0.0599
     65 H30        34.5699   45.8391  -12.0743 H           1 MOL       0.0559
@<TRIPOS>BOND
     1    24    25   1
     2    25    28   1
     3    25    26   1
     4    26    27  ar
     5    26    35  ar
     6    28    29   1
     7    29    30  ar
     8    29    31  ar
     9    31    33  ar
    10    33    34  ar
    11    32    34  ar
    12    30    32  ar
    13     2     1   1
    14     3     2   1
    15     2     6   1
    16     3     4  ar
    17     3     5  ar
    18    13     3   1
    19     6     7   1
    20     7     8  ar
    21     7     9  ar
    22     8    10  ar
    23     9    11  ar
    24    10    12  ar
    25    11    12  ar
    26    14    13   1
    27    14    15   1
    28    22    14   1
    29    15    16   1
    30    16    17  ar
    31    16    18  ar
    32    17    19  ar
    33    18    20  ar
    34    19    21  ar
    35    20    21  ar
    36    22    23   2
    37    22    24  am
    38     1    36   1
    39     1    37   1
    40     1    38   1
    41     2    39   1
    42     6    40   1
    43     6    41   1
    44     8    42   1
    45     9    43   1
    46    10    44   1
    47    11    45   1
    48    12    46   1
    49    13    47   1
    50    13    48   1
    51    14    49   1
    52    15    50   1
    53    15    51   1
    54    17    52   1
    55    18    53   1
    56    19    54   1
    57    20    55   1
    58    21    56   1
    59    24    57   1
    60    25    58   1
    61    28    59   1
    62    28    60   1
    63    30    61   1
    64    31    62   1
    65    32    63   1
    66    33    64   1
    67    34    65   1
@<TRIPOS>SUBSTRUCTURE
     1  MOL      2

