@<TRIPOS>MOLECULE
1os0_ligand_055
    65    67
SMALL
GAST_HUCK
****
This file was generated by PARSER (from files_GN.cpp)

@<TRIPOS>ATOM
      1 N          35.4053   38.2582  -12.3161 N.4         1 MOL       0.2351
      2 CA         34.1841   37.4424  -12.2562 C.3         1 MOL       0.0466
      3 P          33.1069   38.0677  -11.1369 P.3         1 MOL       0.0403
      4 O1P        32.1882   37.0093  -10.7973 O.co2       1 MOL      -0.6153
      5 O2P        33.7790   38.3967   -9.9038 O.co2       1 MOL      -0.6153
      6 CB         34.5321   35.9211  -12.1280 C.3         1 MOL       0.0407
      7 CG         35.2057   35.4185  -10.8867 C.ar        1 MOL      -0.0360
      8 CD1        36.4356   35.9588  -10.4316 C.ar        1 MOL      -0.0601
      9 CD2        34.6690   34.3088  -10.1854 C.ar        1 MOL      -0.0601
     10 CE1        37.0930   35.4222   -9.3074 C.ar        1 MOL      -0.0686
     11 CE2        35.3390   33.7549   -9.0796 C.ar        1 MOL      -0.0686
     12 CZ         36.5485   34.3126   -8.6359 C.ar        1 MOL      -0.0687
     13 CM         32.2003   39.3780  -11.6646 C.3         1 MOL       0.0402
     14 CA         32.7681   40.8178  -11.3801 C.3         1 MOL       0.0742
     15 CB         31.9241   41.9118  -12.1223 C.3         1 MOL       0.0021
     16 CG         32.3577   43.3367  -11.9854 C.ar        1 MOL      -0.0405
     17 CD1        31.4063   44.3747  -11.8284 C.ar        1 MOL      -0.0602
     18 CD2        33.7267   43.6976  -12.0891 C.ar        1 MOL      -0.0602
     19 CE1        31.8065   45.7243  -11.7626 C.ar        1 MOL      -0.0686
     20 CE2        34.1298   45.0461  -12.0013 C.ar        1 MOL      -0.0686
     21 CZ         33.1714   46.0597  -11.8417 C.ar        1 MOL      -0.0687
     22 C          32.8696   41.0863   -9.9407 C.2         1 MOL       0.1844
     23 O          31.8530   41.3717   -9.3184 O.2         1 MOL      -0.3964
     24 N          34.0470   41.0088   -9.3314 N.am        1 MOL      -0.2692
     25 CA         34.3565   41.3619   -7.9721 C.3         1 MOL       0.1038
     26 C          35.1093   42.6372   -7.9689 C.2         1 MOL       0.0621
     27 O          35.4522   43.2002   -6.7877 O.co2       1 MOL      -0.5664
     28 CB         35.1851   40.2324   -7.2782 C.3         1 MOL       0.0159
     29 CG         34.4704   38.9503   -6.9921 C.ar        1 MOL      -0.0392
     30 CD1        33.1913   38.9528   -6.3829 C.ar        1 MOL      -0.0602
     31 CD2        35.0911   37.7031   -7.2462 C.ar        1 MOL      -0.0602
     32 CE1        32.5269   37.7460   -6.0941 C.ar        1 MOL      -0.0686
     33 CE2        34.4303   36.4936   -6.9484 C.ar        1 MOL      -0.0686
     34 CZ         33.1373   36.5149   -6.3865 C.ar        1 MOL      -0.0687
     35 OXT        35.3273   43.3594   -9.0924 O.co2       1 MOL      -0.5664
     36 H1         36.1112   37.7729  -12.8713 H           1 MOL       0.2014
     37 H2         35.7643   38.4235  -11.3761 H           1 MOL       0.2014
     38 H3         35.1880   39.1581  -12.7657 H           1 MOL       0.2014
     39 H4         33.7063   37.5662  -13.2351 H           1 MOL       0.1089
     40 H5         35.1747   35.6566  -12.9730 H           1 MOL       0.0499
     41 H6         33.6005   35.3705  -12.2920 H           1 MOL       0.0499
     42 H7         36.8867   36.7208  -10.9414 H           1 MOL       0.0557
     43 H8         33.8032   33.8661  -10.4974 H           1 MOL       0.0557
     44 H9         37.9832   35.8206   -8.9958 H           1 MOL       0.0599
     45 H10        34.9679   32.9224   -8.6191 H           1 MOL       0.0599
     46 H11        37.0435   33.9050   -7.8336 H           1 MOL       0.0559
     47 H12        31.2066   39.3055  -11.2140 H           1 MOL       0.0496
     48 H13        32.0656   39.2498  -12.7435 H           1 MOL       0.0496
     49 H14        33.7675   40.8708  -11.8215 H           1 MOL       0.0576
     50 H15        30.8793   41.8083  -11.8073 H           1 MOL       0.0454
     51 H16        31.9456   41.6864  -13.1933 H           1 MOL       0.0454
     52 H17        30.4079   44.1610  -11.7821 H           1 MOL       0.0557
     53 H18        34.4412   42.9818  -12.2326 H           1 MOL       0.0557
     54 H19        31.1080   46.4642  -11.6662 H           1 MOL       0.0599
     55 H20        35.1232   45.2900  -12.0622 H           1 MOL       0.0599
     56 H21        33.4603   47.0393  -11.7921 H           1 MOL       0.0559
     57 H22        34.8036   40.7419   -9.8825 H           1 MOL       0.1876
     58 H23        33.4500   41.5438   -7.3946 H           1 MOL       0.0749
     59 H24        35.5461   40.5991   -6.3106 H           1 MOL       0.0467
     60 H25        36.0770   40.0406   -7.8923 H           1 MOL       0.0467
     61 H26        32.7343   39.8348   -6.1485 H           1 MOL       0.0557
     62 H27        36.0366   37.6602   -7.6465 H           1 MOL       0.0557
     63 H28        31.5979   37.7637   -5.6635 H           1 MOL       0.0599
     64 H29        34.8880   35.5933   -7.1363 H           1 MOL       0.0599
     65 H30        32.6592   35.6346   -6.1792 H           1 MOL       0.0559
@<TRIPOS>BOND
     1    24    25   1
     2    25    28   1
     3    25    26   1
     4    26    27  ar
     5    26    35  ar
     6    28    29   1
     7    29    30  ar
     8    29    31  ar
     9    31    33  ar
    10    33    34  ar
    11    32    34  ar
    12    30    32  ar
    13     2     1   1
    14     3     2   1
    15     2     6   1
    16     3     4  ar
    17     3     5  ar
    18    13     3   1
    19     6     7   1
    20     7     8  ar
    21     7     9  ar
    22     8    10  ar
    23     9    11  ar
    24    10    12  ar
    25    11    12  ar
    26    14    13   1
    27    14    15   1
    28    22    14   1
    29    15    16   1
    30    16    17  ar
    31    16    18  ar
    32    17    19  ar
    33    18    20  ar
    34    19    21  ar
    35    20    21  ar
    36    22    23   2
    37    22    24  am
    38     1    36   1
    39     1    37   1
    40     1    38   1
    41     2    39   1
    42     6    40   1
    43     6    41   1
    44     8    42   1
    45     9    43   1
    46    10    44   1
    47    11    45   1
    48    12    46   1
    49    13    47   1
    50    13    48   1
    51    14    49   1
    52    15    50   1
    53    15    51   1
    54    17    52   1
    55    18    53   1
    56    19    54   1
    57    20    55   1
    58    21    56   1
    59    24    57   1
    60    25    58   1
    61    28    59   1
    62    28    60   1
    63    30    61   1
    64    31    62   1
    65    32    63   1
    66    33    64   1
    67    34    65   1
@<TRIPOS>SUBSTRUCTURE
     1  MOL      2

