@<TRIPOS>MOLECULE
1os0_ligand_041
    65    67
SMALL
GAST_HUCK
****
This file was generated by PARSER (from files_GN.cpp)

@<TRIPOS>ATOM
      1 N          34.8284   42.9239   -9.2852 N.4         1 MOL       0.2351
      2 CA         33.6065   43.3035  -10.0076 C.3         1 MOL       0.0466
      3 P          32.4034   42.1557   -9.7576 P.3         1 MOL       0.0403
      4 O1P        31.6728   42.5526   -8.5753 O.co2       1 MOL      -0.6153
      5 O2P        31.3960   42.2812  -10.7801 O.co2       1 MOL      -0.6153
      6 CB         34.0108   43.6075  -11.4833 C.3         1 MOL       0.0407
      7 CG         32.9610   44.1734  -12.3732 C.ar        1 MOL      -0.0360
      8 CD1        32.8689   43.7853  -13.7354 C.ar        1 MOL      -0.0601
      9 CD2        32.0623   45.1607  -11.8949 C.ar        1 MOL      -0.0601
     10 CE1        31.9373   44.3837  -14.5928 C.ar        1 MOL      -0.0686
     11 CE2        31.1122   45.7392  -12.7480 C.ar        1 MOL      -0.0686
     12 CZ         31.0494   45.3650  -14.1015 C.ar        1 MOL      -0.0687
     13 CM         32.8576   40.5370   -9.6434 C.3         1 MOL       0.0402
     14 CA         33.0749   39.9451   -8.2073 C.3         1 MOL       0.0742
     15 CB         33.2909   38.3905   -8.2237 C.3         1 MOL       0.0021
     16 CG         32.0561   37.5755   -8.4481 C.ar        1 MOL      -0.0405
     17 CD1        31.1566   37.3538   -7.3875 C.ar        1 MOL      -0.0602
     18 CD2        31.8163   36.9329   -9.6902 C.ar        1 MOL      -0.0602
     19 CE1        30.0366   36.5031   -7.5489 C.ar        1 MOL      -0.0686
     20 CE2        30.6991   36.0888   -9.8534 C.ar        1 MOL      -0.0686
     21 CZ         29.8133   35.8793   -8.7867 C.ar        1 MOL      -0.0687
     22 C          34.1741   40.5914   -7.4897 C.2         1 MOL       0.1844
     23 O          35.2993   40.6112   -8.0156 O.2         1 MOL      -0.3964
     24 N          33.9604   41.1746   -6.3299 N.am        1 MOL      -0.2692
     25 CA         34.9125   41.7532   -5.4153 C.3         1 MOL       0.1038
     26 C          35.7264   42.8267   -6.0305 C.2         1 MOL       0.0621
     27 O          35.1167   43.7541   -6.8022 O.co2       1 MOL      -0.5664
     28 CB         35.7467   40.6360   -4.7149 C.3         1 MOL       0.0159
     29 CG         36.3245   41.0648   -3.4099 C.ar        1 MOL      -0.0392
     30 CD1        37.7212   41.2012   -3.2308 C.ar        1 MOL      -0.0602
     31 CD2        35.4699   41.3590   -2.3177 C.ar        1 MOL      -0.0602
     32 CE1        38.2470   41.6591   -2.0115 C.ar        1 MOL      -0.0686
     33 CE2        35.9959   41.8041   -1.0937 C.ar        1 MOL      -0.0686
     34 CZ         37.3810   41.9703   -0.9416 C.ar        1 MOL      -0.0687
     35 OXT        37.0237   43.0400   -5.7120 O.co2       1 MOL      -0.5664
     36 H1         35.5391   43.6497   -9.4128 H           1 MOL       0.2014
     37 H2         35.1826   42.0304   -9.6407 H           1 MOL       0.2014
     38 H3         34.6197   42.8342   -8.2916 H           1 MOL       0.2014
     39 H4         33.2723   44.2386   -9.5500 H           1 MOL       0.1089
     40 H5         34.4414   42.7005  -11.9176 H           1 MOL       0.0499
     41 H6         34.8102   44.3533  -11.4549 H           1 MOL       0.0499
     42 H7         33.5035   43.0739  -14.1113 H           1 MOL       0.0557
     43 H8         32.1052   45.4752  -10.9229 H           1 MOL       0.0557
     44 H9         31.8884   44.1074  -15.5770 H           1 MOL       0.0599
     45 H10        30.4619   46.4361  -12.3778 H           1 MOL       0.0599
     46 H11        30.3773   45.8076  -14.7299 H           1 MOL       0.0559
     47 H12        33.7601   40.3967  -10.2473 H           1 MOL       0.0496
     48 H13        32.0758   39.9441  -10.1256 H           1 MOL       0.0496
     49 H14        32.1512   40.1269   -7.6497 H           1 MOL       0.0576
     50 H15        33.6976   38.0554   -7.2609 H           1 MOL       0.0454
     51 H16        34.0560   38.1531   -8.9707 H           1 MOL       0.0454
     52 H17        31.3192   37.7736   -6.4682 H           1 MOL       0.0557
     53 H18        32.4622   37.0570  -10.4696 H           1 MOL       0.0557
     54 H19        29.4076   36.3337   -6.7641 H           1 MOL       0.0599
     55 H20        30.5453   35.6168  -10.7482 H           1 MOL       0.0599
     56 H21        29.0083   35.2568   -8.9038 H           1 MOL       0.0559
     57 H22        33.0501   41.1302   -5.9824 H           1 MOL       0.1876
     58 H23        34.3007   42.2459   -4.6552 H           1 MOL       0.0749
     59 H24        36.5279   40.2930   -5.3991 H           1 MOL       0.0467
     60 H25        35.1012   39.7760   -4.5298 H           1 MOL       0.0467
     61 H26        38.3651   40.9854   -3.9971 H           1 MOL       0.0557
     62 H27        34.4574   41.2545   -2.4118 H           1 MOL       0.0557
     63 H28        39.2547   41.7769   -1.8985 H           1 MOL       0.0599
     64 H29        35.3659   42.0201   -0.3152 H           1 MOL       0.0599
     65 H30        37.7627   42.3215   -0.0632 H           1 MOL       0.0559
@<TRIPOS>BOND
     1    24    25   1
     2    25    28   1
     3    25    26   1
     4    26    27  ar
     5    26    35  ar
     6    28    29   1
     7    29    30  ar
     8    29    31  ar
     9    31    33  ar
    10    33    34  ar
    11    32    34  ar
    12    30    32  ar
    13     2     1   1
    14     3     2   1
    15     2     6   1
    16     3     4  ar
    17     3     5  ar
    18    13     3   1
    19     6     7   1
    20     7     8  ar
    21     7     9  ar
    22     8    10  ar
    23     9    11  ar
    24    10    12  ar
    25    11    12  ar
    26    14    13   1
    27    14    15   1
    28    22    14   1
    29    15    16   1
    30    16    17  ar
    31    16    18  ar
    32    17    19  ar
    33    18    20  ar
    34    19    21  ar
    35    20    21  ar
    36    22    23   2
    37    22    24  am
    38     1    36   1
    39     1    37   1
    40     1    38   1
    41     2    39   1
    42     6    40   1
    43     6    41   1
    44     8    42   1
    45     9    43   1
    46    10    44   1
    47    11    45   1
    48    12    46   1
    49    13    47   1
    50    13    48   1
    51    14    49   1
    52    15    50   1
    53    15    51   1
    54    17    52   1
    55    18    53   1
    56    19    54   1
    57    20    55   1
    58    21    56   1
    59    24    57   1
    60    25    58   1
    61    28    59   1
    62    28    60   1
    63    30    61   1
    64    31    62   1
    65    32    63   1
    66    33    64   1
    67    34    65   1
@<TRIPOS>SUBSTRUCTURE
     1  MOL      2

