@<TRIPOS>MOLECULE
1os0_ligand_004
    65    67
SMALL
GAST_HUCK
****
This file was generated by PARSER (from files_GN.cpp)

@<TRIPOS>ATOM
      1 N          32.5151   46.4899  -12.0030 N.4         1 MOL       0.2351
      2 CA         32.6265   45.0511  -12.3155 C.3         1 MOL       0.0466
      3 P          33.3567   44.2164  -11.0525 P.3         1 MOL       0.0403
      4 O1P        34.7530   44.5944  -10.9985 O.co2       1 MOL      -0.6153
      5 O2P        32.8226   44.7109   -9.8148 O.co2       1 MOL      -0.6153
      6 CB         33.3099   44.8469  -13.7052 C.3         1 MOL       0.0407
      7 CG         32.6787   45.5554  -14.8647 C.ar        1 MOL      -0.0360
      8 CD1        31.2989   45.4267  -15.1494 C.ar        1 MOL      -0.0601
      9 CD2        33.4707   46.3230  -15.7550 C.ar        1 MOL      -0.0601
     10 CE1        30.7164   46.0959  -16.2482 C.ar        1 MOL      -0.0686
     11 CE2        32.9015   46.9528  -16.8792 C.ar        1 MOL      -0.0686
     12 CZ         31.5204   46.8522  -17.1118 C.ar        1 MOL      -0.0687
     13 CM         33.2437   42.5406  -11.1381 C.3         1 MOL       0.0402
     14 CA         32.1751   41.8346  -10.2296 C.3         1 MOL       0.0742
     15 CB         31.8714   40.3591  -10.6808 C.3         1 MOL       0.0021
     16 CG         30.4920   39.9043  -10.3638 C.ar        1 MOL      -0.0405
     17 CD1        29.4004   40.4188  -11.1054 C.ar        1 MOL      -0.0602
     18 CD2        30.2372   38.9352   -9.3639 C.ar        1 MOL      -0.0602
     19 CE1        28.0886   39.9701  -10.8602 C.ar        1 MOL      -0.0686
     20 CE2        28.9273   38.4809   -9.1267 C.ar        1 MOL      -0.0686
     21 CZ         27.8530   38.9994   -9.8748 C.ar        1 MOL      -0.0687
     22 C          32.5575   41.8717   -8.8136 C.2         1 MOL       0.1844
     23 O          31.8913   42.5443   -8.0374 O.2         1 MOL      -0.3964
     24 N          33.6668   41.2690   -8.3978 N.am        1 MOL      -0.2692
     25 CA         34.3030   41.4167   -7.1177 C.3         1 MOL       0.1038
     26 C          35.1570   42.6267   -7.1029 C.2         1 MOL       0.0621
     27 O          35.7425   43.0658   -5.9699 O.co2       1 MOL      -0.5664
     28 CB         35.1446   40.1563   -6.7537 C.3         1 MOL       0.0159
     29 CG         34.4501   38.8337   -6.7641 C.ar        1 MOL      -0.0392
     30 CD1        33.1153   38.6740   -6.3292 C.ar        1 MOL      -0.0602
     31 CD2        35.1716   37.6662   -7.1208 C.ar        1 MOL      -0.0602
     32 CE1        32.5076   37.4042   -6.2849 C.ar        1 MOL      -0.0686
     33 CE2        34.5746   36.3951   -7.0665 C.ar        1 MOL      -0.0686
     34 CZ         33.2371   36.2664   -6.6530 C.ar        1 MOL      -0.0687
     35 OXT        35.4120   43.3534   -8.2035 O.co2       1 MOL      -0.5664
     36 H1         32.1844   46.9969  -12.8306 H           1 MOL       0.2014
     37 H2         33.4221   46.8661  -11.7122 H           1 MOL       0.2014
     38 H3         31.8408   46.6247  -11.2467 H           1 MOL       0.2014
     39 H4         31.6090   44.6636  -12.3638 H           1 MOL       0.1089
     40 H5         33.3120   43.7836  -13.9586 H           1 MOL       0.0499
     41 H6         34.3568   45.1522  -13.6140 H           1 MOL       0.0499
     42 H7         30.6975   44.8531  -14.5620 H           1 MOL       0.0557
     43 H8         34.4747   46.4091  -15.6087 H           1 MOL       0.0557
     44 H9         29.7138   46.0134  -16.4226 H           1 MOL       0.0599
     45 H10        33.4902   47.4833  -17.5229 H           1 MOL       0.0599
     46 H11        31.1045   47.3214  -17.9198 H           1 MOL       0.0559
     47 H12        34.2258   42.1051  -10.9361 H           1 MOL       0.0496
     48 H13        33.0083   42.3095  -12.1740 H           1 MOL       0.0496
     49 H14        31.2482   42.4086  -10.3608 H           1 MOL       0.0576
     50 H15        32.6091   39.6741  -10.2546 H           1 MOL       0.0454
     51 H16        31.9957   40.2643  -11.7602 H           1 MOL       0.0454
     52 H17        29.5553   41.1135  -11.8377 H           1 MOL       0.0557
     53 H18        31.0040   38.5497   -8.8097 H           1 MOL       0.0557
     54 H19        27.3124   40.3449  -11.4084 H           1 MOL       0.0599
     55 H20        28.7522   37.7801   -8.4047 H           1 MOL       0.0599
     56 H21        26.9003   38.6721   -9.6974 H           1 MOL       0.0559
     57 H22        34.1396   40.7217   -9.0436 H           1 MOL       0.1876
     58 H23        33.5519   41.5669   -6.3445 H           1 MOL       0.0749
     59 H24        35.5436   40.2850   -5.7451 H           1 MOL       0.0467
     60 H25        35.9989   40.1258   -7.4343 H           1 MOL       0.0467
     61 H26        32.5637   39.4755   -6.0315 H           1 MOL       0.0557
     62 H27        36.1513   37.7309   -7.4005 H           1 MOL       0.0557
     63 H28        31.5392   37.3170   -5.9780 H           1 MOL       0.0599
     64 H29        35.1137   35.5650   -7.3132 H           1 MOL       0.0599
     65 H30        32.8022   35.3479   -6.6127 H           1 MOL       0.0559
@<TRIPOS>BOND
     1    24    25   1
     2    25    28   1
     3    25    26   1
     4    26    27  ar
     5    26    35  ar
     6    28    29   1
     7    29    30  ar
     8    29    31  ar
     9    31    33  ar
    10    33    34  ar
    11    32    34  ar
    12    30    32  ar
    13     2     1   1
    14     3     2   1
    15     2     6   1
    16     3     4  ar
    17     3     5  ar
    18    13     3   1
    19     6     7   1
    20     7     8  ar
    21     7     9  ar
    22     8    10  ar
    23     9    11  ar
    24    10    12  ar
    25    11    12  ar
    26    14    13   1
    27    14    15   1
    28    22    14   1
    29    15    16   1
    30    16    17  ar
    31    16    18  ar
    32    17    19  ar
    33    18    20  ar
    34    19    21  ar
    35    20    21  ar
    36    22    23   2
    37    22    24  am
    38     1    36   1
    39     1    37   1
    40     1    38   1
    41     2    39   1
    42     6    40   1
    43     6    41   1
    44     8    42   1
    45     9    43   1
    46    10    44   1
    47    11    45   1
    48    12    46   1
    49    13    47   1
    50    13    48   1
    51    14    49   1
    52    15    50   1
    53    15    51   1
    54    17    52   1
    55    18    53   1
    56    19    54   1
    57    20    55   1
    58    21    56   1
    59    24    57   1
    60    25    58   1
    61    28    59   1
    62    28    60   1
    63    30    61   1
    64    31    62   1
    65    32    63   1
    66    33    64   1
    67    34    65   1
@<TRIPOS>SUBSTRUCTURE
     1  MOL      2

