@<TRIPOS>MOLECULE
1os0_ligand_001
    65    67
SMALL
GAST_HUCK
****
This file was generated by PARSER (from files_GN.cpp)

@<TRIPOS>ATOM
      1 N          35.2806   43.4898   -1.4521 N.4         1 MOL       0.2351
      2 CA         36.6522   43.4297   -1.9908 C.3         1 MOL       0.0466
      3 P          36.8712   42.0728   -2.9352 P.3         1 MOL       0.0403
      4 O1P        38.2101   42.1958   -3.4545 O.co2       1 MOL      -0.6153
      5 O2P        36.8600   40.8960   -2.1034 O.co2       1 MOL      -0.6153
      6 CB         37.7300   43.5537   -0.8596 C.3         1 MOL       0.0407
      7 CG         38.1431   44.9433   -0.5361 C.ar        1 MOL      -0.0360
      8 CD1        38.2676   45.3549    0.8083 C.ar        1 MOL      -0.0601
      9 CD2        38.5408   45.8434   -1.5544 C.ar        1 MOL      -0.0601
     10 CE1        38.7288   46.6429    1.1235 C.ar        1 MOL      -0.0686
     11 CE2        38.9447   47.1564   -1.2429 C.ar        1 MOL      -0.0686
     12 CZ         39.0404   47.5559    0.1010 C.ar        1 MOL      -0.0687
     13 CM         35.7916   41.9944   -4.2102 C.3         1 MOL       0.0402
     14 CA         36.2751   41.1877   -5.4666 C.3         1 MOL       0.0742
     15 CB         36.2929   39.6306   -5.2260 C.3         1 MOL       0.0021
     16 CG         37.3935   38.8904   -5.9044 C.ar        1 MOL      -0.0405
     17 CD1        37.1374   38.0202   -6.9898 C.ar        1 MOL      -0.0602
     18 CD2        38.7129   38.9753   -5.3950 C.ar        1 MOL      -0.0602
     19 CE1        38.1751   37.2560   -7.5547 C.ar        1 MOL      -0.0686
     20 CE2        39.7462   38.2067   -5.9597 C.ar        1 MOL      -0.0686
     21 CZ         39.4774   37.3448   -7.0363 C.ar        1 MOL      -0.0687
     22 C          35.5407   41.6494   -6.6537 C.2         1 MOL       0.1844
     23 O          35.8758   42.7327   -7.1248 O.2         1 MOL      -0.3964
     24 N          34.4740   41.0190   -7.1465 N.am        1 MOL      -0.2692
     25 CA         33.7261   41.3503   -8.3324 C.3         1 MOL       0.1038
     26 C          34.6048   41.2202   -9.5157 C.2         1 MOL       0.0621
     27 O          35.5504   40.2479   -9.5425 O.co2       1 MOL      -0.5664
     28 CB         32.9402   42.6975   -8.1711 C.3         1 MOL       0.0159
     29 CG         32.1496   43.2306   -9.3248 C.ar        1 MOL      -0.0392
     30 CD1        31.8473   44.6152   -9.3649 C.ar        1 MOL      -0.0602
     31 CD2        31.7108   42.4281  -10.4041 C.ar        1 MOL      -0.0602
     32 CE1        31.2122   45.1930  -10.4790 C.ar        1 MOL      -0.0686
     33 CE2        31.0903   43.0059  -11.5298 C.ar        1 MOL      -0.0686
     34 CZ         30.8456   44.3892  -11.5711 C.ar        1 MOL      -0.0687
     35 OXT        34.5172   42.0561  -10.5696 O.co2       1 MOL      -0.5664
     36 H1         35.2049   44.3097   -0.8484 H           1 MOL       0.2014
     37 H2         35.0581   42.6543   -0.9075 H           1 MOL       0.2014
     38 H3         34.6048   43.5844   -2.2184 H           1 MOL       0.2014
     39 H4         36.7336   44.2784   -2.6704 H           1 MOL       0.1089
     40 H5         38.6611   43.0466   -1.1248 H           1 MOL       0.0499
     41 H6         37.3493   43.0367    0.0274 H           1 MOL       0.0499
     42 H7         38.0647   44.7086    1.5719 H           1 MOL       0.0557
     43 H8         38.5421   45.5475   -2.5324 H           1 MOL       0.0557
     44 H9         38.8497   46.9081    2.1010 H           1 MOL       0.0599
     45 H10        39.1964   47.8110   -1.9907 H           1 MOL       0.0599
     46 H11        39.3668   48.4967    0.3336 H           1 MOL       0.0559
     47 H12        35.5945   43.0313   -4.5022 H           1 MOL       0.0496
     48 H13        34.8533   41.5723   -3.8463 H           1 MOL       0.0496
     49 H14        37.3154   41.4815   -5.6480 H           1 MOL       0.0576
     50 H15        35.3168   39.2020   -5.4744 H           1 MOL       0.0454
     51 H16        36.4159   39.4198   -4.1641 H           1 MOL       0.0454
     52 H17        36.1935   37.9305   -7.3710 H           1 MOL       0.0557
     53 H18        38.9302   39.5819   -4.5954 H           1 MOL       0.0557
     54 H19        37.9765   36.6236   -8.3327 H           1 MOL       0.0599
     55 H20        40.6922   38.2685   -5.5785 H           1 MOL       0.0599
     56 H21        40.2283   36.7804   -7.4369 H           1 MOL       0.0559
     57 H22        34.1915   40.2139   -6.6854 H           1 MOL       0.1876
     58 H23        32.9798   40.5641   -8.4411 H           1 MOL       0.0749
     59 H24        33.6621   43.4653   -7.8793 H           1 MOL       0.0467
     60 H25        32.2551   42.5785   -7.3285 H           1 MOL       0.0467
     61 H26        32.1054   45.2261   -8.5872 H           1 MOL       0.0557
     62 H27        31.8626   41.4194  -10.3912 H           1 MOL       0.0557
     63 H28        31.0482   46.2043  -10.5119 H           1 MOL       0.0599
     64 H29        30.8228   42.4205  -12.3233 H           1 MOL       0.0599
     65 H30        30.4115   44.8107  -12.3966 H           1 MOL       0.0559
@<TRIPOS>BOND
     1    24    25   1
     2    25    28   1
     3    25    26   1
     4    26    27  ar
     5    26    35  ar
     6    28    29   1
     7    29    30  ar
     8    29    31  ar
     9    31    33  ar
    10    33    34  ar
    11    32    34  ar
    12    30    32  ar
    13     2     1   1
    14     3     2   1
    15     2     6   1
    16     3     4  ar
    17     3     5  ar
    18    13     3   1
    19     6     7   1
    20     7     8  ar
    21     7     9  ar
    22     8    10  ar
    23     9    11  ar
    24    10    12  ar
    25    11    12  ar
    26    14    13   1
    27    14    15   1
    28    22    14   1
    29    15    16   1
    30    16    17  ar
    31    16    18  ar
    32    17    19  ar
    33    18    20  ar
    34    19    21  ar
    35    20    21  ar
    36    22    23   2
    37    22    24  am
    38     1    36   1
    39     1    37   1
    40     1    38   1
    41     2    39   1
    42     6    40   1
    43     6    41   1
    44     8    42   1
    45     9    43   1
    46    10    44   1
    47    11    45   1
    48    12    46   1
    49    13    47   1
    50    13    48   1
    51    14    49   1
    52    15    50   1
    53    15    51   1
    54    17    52   1
    55    18    53   1
    56    19    54   1
    57    20    55   1
    58    21    56   1
    59    24    57   1
    60    25    58   1
    61    28    59   1
    62    28    60   1
    63    30    61   1
    64    31    62   1
    65    32    63   1
    66    33    64   1
    67    34    65   1
@<TRIPOS>SUBSTRUCTURE
     1  MOL      2

