@<TRIPOS>MOLECULE
1os0_ligand_051
    65    67
SMALL
GAST_HUCK
****
This file was generated by PARSER (from files_GN.cpp)

@<TRIPOS>ATOM
      1 N          32.9379   46.0510  -15.4115 N.4         1 MOL       0.2351
      2 CA         32.2260   45.1338  -14.4999 C.3         1 MOL       0.0466
      3 P          32.7059   45.3580  -12.8971 P.3         1 MOL       0.0403
      4 O1P        33.7816   46.3238  -12.8872 O.co2       1 MOL      -0.6153
      5 O2P        31.6926   46.1173  -12.2025 O.co2       1 MOL      -0.6153
      6 CB         32.3560   43.6730  -15.0219 C.3         1 MOL       0.0407
      7 CG         32.0878   43.4650  -16.4701 C.ar        1 MOL      -0.0360
      8 CD1        30.8560   43.8778  -17.0298 C.ar        1 MOL      -0.0601
      9 CD2        33.0067   42.7755  -17.2958 C.ar        1 MOL      -0.0601
     10 CE1        30.5415   43.5934  -18.3708 C.ar        1 MOL      -0.0686
     11 CE2        32.6932   42.4890  -18.6383 C.ar        1 MOL      -0.0686
     12 CZ         31.4568   42.8911  -19.1734 C.ar        1 MOL      -0.0687
     13 CM         33.1814   44.0577  -11.9353 C.3         1 MOL       0.0402
     14 CA         32.0609   43.2115  -11.2057 C.3         1 MOL       0.0742
     15 CB         31.8587   41.7685  -11.7818 C.3         1 MOL       0.0021
     16 CG         30.6596   41.0668  -11.2449 C.ar        1 MOL      -0.0405
     17 CD1        29.3942   41.2307  -11.8561 C.ar        1 MOL      -0.0602
     18 CD2        30.7469   40.2470  -10.0975 C.ar        1 MOL      -0.0602
     19 CE1        28.2540   40.5880  -11.3371 C.ar        1 MOL      -0.0686
     20 CE2        29.6119   39.5999   -9.5772 C.ar        1 MOL      -0.0686
     21 CZ         28.3620   39.7746  -10.1949 C.ar        1 MOL      -0.0687
     22 C          32.2783   43.1814   -9.7580 C.2         1 MOL       0.1844
     23 O          31.7917   44.0694   -9.0711 O.2         1 MOL      -0.3964
     24 N          33.1149   42.3019   -9.2192 N.am        1 MOL      -0.2692
     25 CA         33.5819   42.2293   -7.8630 C.3         1 MOL       0.1038
     26 C          34.8478   42.9898   -7.7347 C.2         1 MOL       0.0621
     27 O          35.3237   43.3439   -6.5187 O.co2       1 MOL      -0.5664
     28 CB         33.7213   40.7483   -7.3748 C.3         1 MOL       0.0159
     29 CG         34.3886   39.7979   -8.3156 C.ar        1 MOL      -0.0392
     30 CD1        33.7055   38.6575   -8.8023 C.ar        1 MOL      -0.0602
     31 CD2        35.7190   40.0104   -8.7479 C.ar        1 MOL      -0.0602
     32 CE1        34.3034   37.7996   -9.7420 C.ar        1 MOL      -0.0686
     33 CE2        36.3213   39.1558   -9.6868 C.ar        1 MOL      -0.0686
     34 CZ         35.6089   38.0569  -10.1928 C.ar        1 MOL      -0.0687
     35 OXT        35.5950   43.3326   -8.8087 O.co2       1 MOL      -0.5664
     36 H1         32.6589   45.8746  -16.3778 H           1 MOL       0.2014
     37 H2         33.9501   45.9269  -15.3188 H           1 MOL       0.2014
     38 H3         32.6809   47.0108  -15.1624 H           1 MOL       0.2014
     39 H4         31.1732   45.4191  -14.5598 H           1 MOL       0.1089
     40 H5         31.6295   43.0564  -14.5081 H           1 MOL       0.0499
     41 H6         33.3518   43.2963  -14.7615 H           1 MOL       0.0499
     42 H7         30.1640   44.3658  -16.4568 H           1 MOL       0.0557
     43 H8         33.9009   42.4515  -16.9213 H           1 MOL       0.0557
     44 H9         29.6392   43.8793  -18.7566 H           1 MOL       0.0599
     45 H10        33.3577   41.9748  -19.2217 H           1 MOL       0.0599
     46 H11        31.2222   42.6705  -20.1444 H           1 MOL       0.0559
     47 H12        33.8671   44.4681  -11.1908 H           1 MOL       0.0496
     48 H13        33.8057   43.4035  -12.5371 H           1 MOL       0.0496
     49 H14        31.0983   43.6995  -11.3605 H           1 MOL       0.0576
     50 H15        32.7471   41.1607  -11.6212 H           1 MOL       0.0454
     51 H16        31.7647   41.7961  -12.8527 H           1 MOL       0.0454
     52 H17        29.2935   41.8190  -12.6857 H           1 MOL       0.0557
     53 H18        31.6369   40.1242   -9.6269 H           1 MOL       0.0557
     54 H19        27.3438   40.7146  -11.7878 H           1 MOL       0.0599
     55 H20        29.6949   39.0062   -8.7490 H           1 MOL       0.0599
     56 H21        27.5337   39.3115   -9.8143 H           1 MOL       0.0559
     57 H22        33.5509   41.6881   -9.8295 H           1 MOL       0.1876
     58 H23        32.8679   42.7238   -7.1948 H           1 MOL       0.0749
     59 H24        32.7099   40.3964   -7.1520 H           1 MOL       0.0467
     60 H25        34.2590   40.7219   -6.4228 H           1 MOL       0.0467
     61 H26        32.7601   38.4447   -8.4809 H           1 MOL       0.0557
     62 H27        36.2660   40.7904   -8.3882 H           1 MOL       0.0557
     63 H28        33.7871   36.9922  -10.0953 H           1 MOL       0.0599
     64 H29        37.2739   39.3328  -10.0065 H           1 MOL       0.0599
     65 H30        36.0398   37.4378  -10.8837 H           1 MOL       0.0559
@<TRIPOS>BOND
     1    24    25   1
     2    25    28   1
     3    25    26   1
     4    26    27  ar
     5    26    35  ar
     6    28    29   1
     7    29    30  ar
     8    29    31  ar
     9    31    33  ar
    10    33    34  ar
    11    32    34  ar
    12    30    32  ar
    13     2     1   1
    14     3     2   1
    15     2     6   1
    16     3     4  ar
    17     3     5  ar
    18    13     3   1
    19     6     7   1
    20     7     8  ar
    21     7     9  ar
    22     8    10  ar
    23     9    11  ar
    24    10    12  ar
    25    11    12  ar
    26    14    13   1
    27    14    15   1
    28    22    14   1
    29    15    16   1
    30    16    17  ar
    31    16    18  ar
    32    17    19  ar
    33    18    20  ar
    34    19    21  ar
    35    20    21  ar
    36    22    23   2
    37    22    24  am
    38     1    36   1
    39     1    37   1
    40     1    38   1
    41     2    39   1
    42     6    40   1
    43     6    41   1
    44     8    42   1
    45     9    43   1
    46    10    44   1
    47    11    45   1
    48    12    46   1
    49    13    47   1
    50    13    48   1
    51    14    49   1
    52    15    50   1
    53    15    51   1
    54    17    52   1
    55    18    53   1
    56    19    54   1
    57    20    55   1
    58    21    56   1
    59    24    57   1
    60    25    58   1
    61    28    59   1
    62    28    60   1
    63    30    61   1
    64    31    62   1
    65    32    63   1
    66    33    64   1
    67    34    65   1
@<TRIPOS>SUBSTRUCTURE
     1  MOL      2

