@<TRIPOS>MOLECULE
1os0_ligand_057
    65    67
SMALL
GAST_HUCK
****
This file was generated by PARSER (from files_GN.cpp)

@<TRIPOS>ATOM
      1 N          39.4473   35.1190   -9.6591 N.4         1 MOL       0.2351
      2 CA         39.1658   34.9206   -8.2293 C.3         1 MOL       0.0466
      3 P          38.8108   36.3769   -7.4652 P.3         1 MOL       0.0403
      4 O1P        38.4376   36.0772   -6.1039 O.co2       1 MOL      -0.6153
      5 O2P        40.0138   37.1599   -7.3408 O.co2       1 MOL      -0.6153
      6 CB         40.2934   34.0589   -7.5664 C.3         1 MOL       0.0407
      7 CG         41.6370   34.7017   -7.4564 C.ar        1 MOL      -0.0360
      8 CD1        41.9514   35.5266   -6.3508 C.ar        1 MOL      -0.0601
      9 CD2        42.6223   34.5111   -8.4579 C.ar        1 MOL      -0.0601
     10 CE1        43.1910   36.1878   -6.2728 C.ar        1 MOL      -0.0686
     11 CE2        43.8705   35.1588   -8.3710 C.ar        1 MOL      -0.0686
     12 CZ         44.1507   36.0087   -7.2866 C.ar        1 MOL      -0.0687
     13 CM         37.6715   37.3400   -8.2387 C.3         1 MOL       0.0402
     14 CA         36.3675   37.7757   -7.4899 C.3         1 MOL       0.0742
     15 CB         35.4298   36.5567   -7.1663 C.3         1 MOL       0.0021
     16 CG         33.9764   36.8672   -7.2026 C.ar        1 MOL      -0.0405
     17 CD1        33.4362   37.8917   -6.3878 C.ar        1 MOL      -0.0602
     18 CD2        33.0977   36.1663   -8.0677 C.ar        1 MOL      -0.0602
     19 CE1        32.0694   38.2236   -6.4552 C.ar        1 MOL      -0.0686
     20 CE2        31.7303   36.4963   -8.1340 C.ar        1 MOL      -0.0686
     21 CZ         31.2180   37.5297   -7.3329 C.ar        1 MOL      -0.0687
     22 C          36.6364   38.6925   -6.3641 C.2         1 MOL       0.1844
     23 O          36.9362   38.2346   -5.2667 O.2         1 MOL      -0.3964
     24 N          36.6517   40.0206   -6.5227 N.am        1 MOL      -0.2692
     25 CA         36.9033   41.0491   -5.5222 C.3         1 MOL       0.1038
     26 C          38.1540   40.7953   -4.7413 C.2         1 MOL       0.0621
     27 O          38.8594   39.6395   -4.8729 O.co2       1 MOL      -0.5664
     28 CB         35.6248   41.3086   -4.6547 C.3         1 MOL       0.0159
     29 CG         35.6903   42.2737   -3.5135 C.ar        1 MOL      -0.0392
     30 CD1        36.5873   43.3752   -3.4939 C.ar        1 MOL      -0.0602
     31 CD2        34.8127   42.1219   -2.4119 C.ar        1 MOL      -0.0602
     32 CE1        36.6539   44.2302   -2.3670 C.ar        1 MOL      -0.0686
     33 CE2        34.8794   42.9630   -1.2891 C.ar        1 MOL      -0.0686
     34 CZ         35.8255   44.0064   -1.2545 C.ar        1 MOL      -0.0687
     35 OXT        38.7573   41.8230   -4.0931 O.co2       1 MOL      -0.5664
     36 H1         39.7885   34.2439  -10.0706 H           1 MOL       0.2014
     37 H2         40.1568   35.8441   -9.7802 H           1 MOL       0.2014
     38 H3         38.5969   35.3992  -10.1484 H           1 MOL       0.2014
     39 H4         38.2536   34.3228   -8.1859 H           1 MOL       0.1089
     40 H5         40.4011   33.1335   -8.1431 H           1 MOL       0.0499
     41 H6         39.9562   33.7413   -6.5745 H           1 MOL       0.0499
     42 H7         41.2686   35.6746   -5.6061 H           1 MOL       0.0557
     43 H8         42.4353   33.9029   -9.2586 H           1 MOL       0.0557
     44 H9         43.3934   36.8049   -5.4831 H           1 MOL       0.0599
     45 H10        44.5711   35.0194   -9.1019 H           1 MOL       0.0599
     46 H11        45.0480   36.4931   -7.2334 H           1 MOL       0.0559
     47 H12        37.3619   36.8140   -9.1459 H           1 MOL       0.0496
     48 H13        38.1711   38.2386   -8.5915 H           1 MOL       0.0496
     49 H14        35.8186   38.3684   -8.2331 H           1 MOL       0.0576
     50 H15        35.6755   36.1249   -6.1942 H           1 MOL       0.0454
     51 H16        35.6307   35.7593   -7.8917 H           1 MOL       0.0454
     52 H17        34.0301   38.4148   -5.7471 H           1 MOL       0.0557
     53 H18        33.4455   35.4164   -8.6681 H           1 MOL       0.0557
     54 H19        31.7038   38.9769   -5.8670 H           1 MOL       0.0599
     55 H20        31.1083   35.9897   -8.7717 H           1 MOL       0.0599
     56 H21        30.2273   37.7775   -7.3928 H           1 MOL       0.0559
     57 H22        36.4946   40.3420   -7.4290 H           1 MOL       0.1876
     58 H23        37.0839   41.9582   -6.1014 H           1 MOL       0.0749
     59 H24        35.2937   40.3394   -4.2679 H           1 MOL       0.0467
     60 H25        34.8280   41.6582   -5.3202 H           1 MOL       0.0467
     61 H26        37.2108   43.5513   -4.2720 H           1 MOL       0.0557
     62 H27        34.1104   41.3793   -2.4171 H           1 MOL       0.0557
     63 H28        37.3236   45.0087   -2.3539 H           1 MOL       0.0599
     64 H29        34.2590   42.8154   -0.4963 H           1 MOL       0.0599
     65 H30        35.9006   44.6055   -0.4283 H           1 MOL       0.0559
@<TRIPOS>BOND
     1    24    25   1
     2    25    28   1
     3    25    26   1
     4    26    27  ar
     5    26    35  ar
     6    28    29   1
     7    29    30  ar
     8    29    31  ar
     9    31    33  ar
    10    33    34  ar
    11    32    34  ar
    12    30    32  ar
    13     2     1   1
    14     3     2   1
    15     2     6   1
    16     3     4  ar
    17     3     5  ar
    18    13     3   1
    19     6     7   1
    20     7     8  ar
    21     7     9  ar
    22     8    10  ar
    23     9    11  ar
    24    10    12  ar
    25    11    12  ar
    26    14    13   1
    27    14    15   1
    28    22    14   1
    29    15    16   1
    30    16    17  ar
    31    16    18  ar
    32    17    19  ar
    33    18    20  ar
    34    19    21  ar
    35    20    21  ar
    36    22    23   2
    37    22    24  am
    38     1    36   1
    39     1    37   1
    40     1    38   1
    41     2    39   1
    42     6    40   1
    43     6    41   1
    44     8    42   1
    45     9    43   1
    46    10    44   1
    47    11    45   1
    48    12    46   1
    49    13    47   1
    50    13    48   1
    51    14    49   1
    52    15    50   1
    53    15    51   1
    54    17    52   1
    55    18    53   1
    56    19    54   1
    57    20    55   1
    58    21    56   1
    59    24    57   1
    60    25    58   1
    61    28    59   1
    62    28    60   1
    63    30    61   1
    64    31    62   1
    65    32    63   1
    66    33    64   1
    67    34    65   1
@<TRIPOS>SUBSTRUCTURE
     1  MOL      2

