@<TRIPOS>MOLECULE
1os0_ligand_000
    65    67
SMALL
GAST_HUCK
****
This file was generated by PARSER (from files_GN.cpp)

@<TRIPOS>ATOM
      1 N          35.0835   41.8907   -2.8349 N.4         1 MOL       0.2351
      2 CA         36.4299   42.3702   -3.1989 C.3         1 MOL       0.0466
      3 P          36.7336   42.0785   -4.8203 P.3         1 MOL       0.0403
      4 O1P        37.8273   42.9273   -5.2416 O.co2       1 MOL      -0.6153
      5 O2P        37.1957   40.7188   -5.0046 O.co2       1 MOL      -0.6153
      6 CB         37.5073   41.8182   -2.2042 C.3         1 MOL       0.0407
      7 CG         37.3886   40.3688   -1.8593 C.ar        1 MOL      -0.0360
      8 CD1        38.0903   39.3776   -2.5902 C.ar        1 MOL      -0.0601
      9 CD2        36.5608   39.9478   -0.7901 C.ar        1 MOL      -0.0601
     10 CE1        37.9176   38.0114   -2.3056 C.ar        1 MOL      -0.0686
     11 CE2        36.4127   38.5835   -0.4811 C.ar        1 MOL      -0.0686
     12 CZ         37.0810   37.6131   -1.2483 C.ar        1 MOL      -0.0687
     13 CM         35.4334   42.3883   -5.8077 C.3         1 MOL       0.0402
     14 CA         35.5499   42.0579   -7.3378 C.3         1 MOL       0.0742
     15 CB         35.6084   40.5297   -7.7060 C.3         1 MOL       0.0021
     16 CG         34.3617   39.7294   -7.4929 C.ar        1 MOL      -0.0405
     17 CD1        34.0000   39.2461   -6.2106 C.ar        1 MOL      -0.0602
     18 CD2        33.4911   39.4573   -8.5787 C.ar        1 MOL      -0.0602
     19 CE1        32.7935   38.5527   -6.0126 C.ar        1 MOL      -0.0686
     20 CE2        32.2839   38.7663   -8.3798 C.ar        1 MOL      -0.0686
     21 CZ         31.9308   38.3129   -7.0972 C.ar        1 MOL      -0.0687
     22 C          34.4692   42.7155   -8.0596 C.2         1 MOL       0.1844
     23 O          33.2908   42.5308   -7.6664 O.2         1 MOL      -0.3964
     24 N          34.6789   43.3990   -9.1892 N.am        1 MOL      -0.2692
     25 CA         33.7347   43.9679  -10.1249 C.3         1 MOL       0.1038
     26 C          32.4569   44.4883   -9.5847 C.2         1 MOL       0.0621
     27 O          31.8610   43.8163   -8.5330 O.co2       1 MOL      -0.5664
     28 CB         33.4588   42.9727  -11.2922 C.3         1 MOL       0.0159
     29 CG         32.6425   43.5878  -12.3780 C.ar        1 MOL      -0.0392
     30 CD1        33.2588   44.3295  -13.4190 C.ar        1 MOL      -0.0602
     31 CD2        31.2298   43.5414  -12.3364 C.ar        1 MOL      -0.0602
     32 CE1        32.4888   44.9752  -14.3948 C.ar        1 MOL      -0.0686
     33 CE2        30.4580   44.1921  -13.3090 C.ar        1 MOL      -0.0686
     34 CZ         31.0861   44.9024  -14.3467 C.ar        1 MOL      -0.0687
     35 OXT        31.7738   45.4674  -10.2308 O.co2       1 MOL      -0.5664
     36 H1         34.9523   41.9728   -1.8269 H           1 MOL       0.2014
     37 H2         34.9926   40.9070   -3.1161 H           1 MOL       0.2014
     38 H3         34.3721   42.4638   -3.2949 H           1 MOL       0.2014
     39 H4         36.4081   43.4567   -3.0818 H           1 MOL       0.1089
     40 H5         37.4415   42.3928   -1.2764 H           1 MOL       0.0499
     41 H6         38.5078   42.0202   -2.5947 H           1 MOL       0.0499
     42 H7         38.7186   39.6453   -3.3507 H           1 MOL       0.0557
     43 H8         36.0551   40.6345   -0.2259 H           1 MOL       0.0557
     44 H9         38.4045   37.3051   -2.8635 H           1 MOL       0.0599
     45 H10        35.8152   38.2973    0.2985 H           1 MOL       0.0599
     46 H11        36.9676   36.6205   -1.0330 H           1 MOL       0.0559
     47 H12        35.2152   43.4525   -5.6820 H           1 MOL       0.0496
     48 H13        34.5795   41.8427   -5.4088 H           1 MOL       0.0496
     49 H14        36.4889   42.4883   -7.6730 H           1 MOL       0.0576
     50 H15        36.4258   40.0425   -7.1785 H           1 MOL       0.0454
     51 H16        35.9086   40.4622   -8.7558 H           1 MOL       0.0454
     52 H17        34.6147   39.3972   -5.4073 H           1 MOL       0.0557
     53 H18        33.7279   39.7782   -9.5209 H           1 MOL       0.0557
     54 H19        32.5341   38.2276   -5.0798 H           1 MOL       0.0599
     55 H20        31.6574   38.5916   -9.1684 H           1 MOL       0.0599
     56 H21        31.0461   37.8231   -6.9505 H           1 MOL       0.0559
     57 H22        35.6054   43.4398   -9.4704 H           1 MOL       0.1876
     58 H23        34.2694   44.8218  -10.5508 H           1 MOL       0.0749
     59 H24        32.9737   42.0697  -10.9011 H           1 MOL       0.0467
     60 H25        34.4124   42.6391  -11.7010 H           1 MOL       0.0467
     61 H26        34.2740   44.4171  -13.4509 H           1 MOL       0.0557
     62 H27        30.7569   43.0584  -11.5718 H           1 MOL       0.0557
     63 H28        32.9433   45.5112  -15.1351 H           1 MOL       0.0599
     64 H29        29.4406   44.1667  -13.2545 H           1 MOL       0.0599
     65 H30        30.5260   45.3734  -15.0530 H           1 MOL       0.0559
@<TRIPOS>BOND
     1    24    25   1
     2    25    28   1
     3    25    26   1
     4    26    27  ar
     5    26    35  ar
     6    28    29   1
     7    29    30  ar
     8    29    31  ar
     9    31    33  ar
    10    33    34  ar
    11    32    34  ar
    12    30    32  ar
    13     2     1   1
    14     3     2   1
    15     2     6   1
    16     3     4  ar
    17     3     5  ar
    18    13     3   1
    19     6     7   1
    20     7     8  ar
    21     7     9  ar
    22     8    10  ar
    23     9    11  ar
    24    10    12  ar
    25    11    12  ar
    26    14    13   1
    27    14    15   1
    28    22    14   1
    29    15    16   1
    30    16    17  ar
    31    16    18  ar
    32    17    19  ar
    33    18    20  ar
    34    19    21  ar
    35    20    21  ar
    36    22    23   2
    37    22    24  am
    38     1    36   1
    39     1    37   1
    40     1    38   1
    41     2    39   1
    42     6    40   1
    43     6    41   1
    44     8    42   1
    45     9    43   1
    46    10    44   1
    47    11    45   1
    48    12    46   1
    49    13    47   1
    50    13    48   1
    51    14    49   1
    52    15    50   1
    53    15    51   1
    54    17    52   1
    55    18    53   1
    56    19    54   1
    57    20    55   1
    58    21    56   1
    59    24    57   1
    60    25    58   1
    61    28    59   1
    62    28    60   1
    63    30    61   1
    64    31    62   1
    65    32    63   1
    66    33    64   1
    67    34    65   1
@<TRIPOS>SUBSTRUCTURE
     1  MOL      2

