@<TRIPOS>MOLECULE
1os0_ligand_033
    65    67
SMALL
GAST_HUCK
****
This file was generated by PARSER (from files_GN.cpp)

@<TRIPOS>ATOM
      1 N          37.4955   42.8335   -5.3335 N.4         1 MOL       0.2351
      2 CA         37.2576   42.2768   -3.9920 C.3         1 MOL       0.0466
      3 P          36.2075   40.9686   -4.0903 P.3         1 MOL       0.0403
      4 O1P        36.9768   39.7517   -4.1842 O.co2       1 MOL      -0.6153
      5 O2P        35.5058   40.8264   -2.8391 O.co2       1 MOL      -0.6153
      6 CB         36.7899   43.4283   -3.0431 C.3         1 MOL       0.0407
      7 CG         36.7384   43.0521   -1.6008 C.ar        1 MOL      -0.0360
      8 CD1        37.9337   42.7702   -0.8926 C.ar        1 MOL      -0.0601
      9 CD2        35.5090   42.9570   -0.9057 C.ar        1 MOL      -0.0601
     10 CE1        37.9005   42.3864    0.4615 C.ar        1 MOL      -0.0686
     11 CE2        35.4741   42.5747    0.4501 C.ar        1 MOL      -0.0686
     12 CZ         36.6696   42.2921    1.1346 C.ar        1 MOL      -0.0687
     13 CM         35.0801   41.0404   -5.3354 C.3         1 MOL       0.0402
     14 CA         35.6171   40.7543   -6.7965 C.3         1 MOL       0.0742
     15 CB         35.2810   39.2842   -7.2525 C.3         1 MOL       0.0021
     16 CG         36.2644   38.6773   -8.2061 C.ar        1 MOL      -0.0405
     17 CD1        36.3285   39.0815   -9.5629 C.ar        1 MOL      -0.0602
     18 CD2        37.1718   37.6825   -7.7653 C.ar        1 MOL      -0.0602
     19 CE1        37.2559   38.5021  -10.4498 C.ar        1 MOL      -0.0686
     20 CE2        38.1032   37.1045   -8.6506 C.ar        1 MOL      -0.0686
     21 CZ         38.1395   37.5102   -9.9936 C.ar        1 MOL      -0.0687
     22 C          35.2187   41.8304   -7.7185 C.2         1 MOL       0.1844
     23 O          35.6685   42.9455   -7.4692 O.2         1 MOL      -0.3964
     24 N          34.4026   41.6676   -8.7579 N.am        1 MOL      -0.2692
     25 CA         33.9819   42.6920   -9.6800 C.3         1 MOL       0.1038
     26 C          32.8953   43.5097   -9.0920 C.2         1 MOL       0.0621
     27 O          32.5780   44.7023   -9.6494 O.co2       1 MOL      -0.5664
     28 CB         33.6005   42.0976  -11.0688 C.3         1 MOL       0.0159
     29 CG         32.3057   41.3665  -11.1336 C.ar        1 MOL      -0.0392
     30 CD1        31.1160   42.0396  -11.5000 C.ar        1 MOL      -0.0602
     31 CD2        32.2436   39.9741  -10.8861 C.ar        1 MOL      -0.0602
     32 CE1        29.8965   41.3444  -11.6030 C.ar        1 MOL      -0.0686
     33 CE2        31.0246   39.2773  -10.9917 C.ar        1 MOL      -0.0686
     34 CZ         29.8495   39.9638  -11.3424 C.ar        1 MOL      -0.0687
     35 OXT        31.9733   42.9302   -8.2902 O.co2       1 MOL      -0.5664
     36 H1         38.2223   43.5569   -5.2872 H           1 MOL       0.2014
     37 H2         36.6307   43.2483   -5.6806 H           1 MOL       0.2014
     38 H3         37.8000   42.1029   -5.9732 H           1 MOL       0.2014
     39 H4         38.2244   41.9004   -3.6468 H           1 MOL       0.1089
     40 H5         35.8157   43.7937   -3.3792 H           1 MOL       0.0499
     41 H6         37.4803   44.2728   -3.1350 H           1 MOL       0.0499
     42 H7         38.8413   42.8331   -1.3612 H           1 MOL       0.0557
     43 H8         34.6262   43.1574   -1.3797 H           1 MOL       0.0557
     44 H9         38.7691   42.1762    0.9569 H           1 MOL       0.0599
     45 H10        34.5789   42.5001    0.9397 H           1 MOL       0.0599
     46 H11        36.6431   42.0210    2.1207 H           1 MOL       0.0559
     47 H12        34.6105   42.0263   -5.2646 H           1 MOL       0.0496
     48 H13        34.2892   40.3244   -5.0964 H           1 MOL       0.0496
     49 H14        36.7140   40.7980   -6.7663 H           1 MOL       0.0576
     50 H15        34.2749   39.2354   -7.6840 H           1 MOL       0.0454
     51 H16        35.2451   38.6481   -6.3599 H           1 MOL       0.0454
     52 H17        35.7000   39.7985   -9.9227 H           1 MOL       0.0557
     53 H18        37.1712   37.3746   -6.7899 H           1 MOL       0.0557
     54 H19        37.2883   38.8047  -11.4260 H           1 MOL       0.0599
     55 H20        38.7546   36.3919   -8.3110 H           1 MOL       0.0599
     56 H21        38.8113   37.0879  -10.6386 H           1 MOL       0.0559
     57 H22        34.0592   40.7727   -8.9146 H           1 MOL       0.1876
     58 H23        34.8271   43.3677   -9.8612 H           1 MOL       0.0749
     59 H24        34.4049   41.4298  -11.3889 H           1 MOL       0.0467
     60 H25        33.5935   42.9121  -11.8009 H           1 MOL       0.0467
     61 H26        31.1315   43.0406  -11.7068 H           1 MOL       0.0557
     62 H27        33.0873   39.4511  -10.6442 H           1 MOL       0.0557
     63 H28        29.0447   41.8421  -11.8776 H           1 MOL       0.0599
     64 H29        30.9949   38.2674  -10.8242 H           1 MOL       0.0599
     65 H30        28.9633   39.4578  -11.4204 H           1 MOL       0.0559
@<TRIPOS>BOND
     1    24    25   1
     2    25    28   1
     3    25    26   1
     4    26    27  ar
     5    26    35  ar
     6    28    29   1
     7    29    30  ar
     8    29    31  ar
     9    31    33  ar
    10    33    34  ar
    11    32    34  ar
    12    30    32  ar
    13     2     1   1
    14     3     2   1
    15     2     6   1
    16     3     4  ar
    17     3     5  ar
    18    13     3   1
    19     6     7   1
    20     7     8  ar
    21     7     9  ar
    22     8    10  ar
    23     9    11  ar
    24    10    12  ar
    25    11    12  ar
    26    14    13   1
    27    14    15   1
    28    22    14   1
    29    15    16   1
    30    16    17  ar
    31    16    18  ar
    32    17    19  ar
    33    18    20  ar
    34    19    21  ar
    35    20    21  ar
    36    22    23   2
    37    22    24  am
    38     1    36   1
    39     1    37   1
    40     1    38   1
    41     2    39   1
    42     6    40   1
    43     6    41   1
    44     8    42   1
    45     9    43   1
    46    10    44   1
    47    11    45   1
    48    12    46   1
    49    13    47   1
    50    13    48   1
    51    14    49   1
    52    15    50   1
    53    15    51   1
    54    17    52   1
    55    18    53   1
    56    19    54   1
    57    20    55   1
    58    21    56   1
    59    24    57   1
    60    25    58   1
    61    28    59   1
    62    28    60   1
    63    30    61   1
    64    31    62   1
    65    32    63   1
    66    33    64   1
    67    34    65   1
@<TRIPOS>SUBSTRUCTURE
     1  MOL      2

