@<TRIPOS>MOLECULE
1os0_ligand_010
    65    67
SMALL
GAST_HUCK
****
This file was generated by PARSER (from files_GN.cpp)

@<TRIPOS>ATOM
      1 N          38.5919   39.2529   -5.2353 N.4         1 MOL       0.2351
      2 CA         37.7222   39.5049   -4.0748 C.3         1 MOL       0.0466
      3 P          37.4316   41.1487   -3.9079 P.3         1 MOL       0.0403
      4 O1P        36.6009   41.3388   -2.7466 O.co2       1 MOL      -0.6153
      5 O2P        38.6776   41.7935   -3.5695 O.co2       1 MOL      -0.6153
      6 CB         38.3160   38.8306   -2.7965 C.3         1 MOL       0.0407
      7 CG         38.2749   37.3448   -2.8784 C.ar        1 MOL      -0.0360
      8 CD1        39.2525   36.6266   -3.6069 C.ar        1 MOL      -0.0601
      9 CD2        37.2201   36.6220   -2.2689 C.ar        1 MOL      -0.0601
     10 CE1        39.1730   35.2281   -3.7312 C.ar        1 MOL      -0.0686
     11 CE2        37.1370   35.2208   -2.3940 C.ar        1 MOL      -0.0686
     12 CZ         38.1186   34.5232   -3.1281 C.ar        1 MOL      -0.0687
     13 CM         36.7116   41.9913   -5.1695 C.3         1 MOL       0.0402
     14 CA         35.8699   41.2247   -6.2642 C.3         1 MOL       0.0742
     15 CB         34.7262   40.2957   -5.6880 C.3         1 MOL       0.0021
     16 CG         34.5444   38.9146   -6.2441 C.ar        1 MOL      -0.0405
     17 CD1        33.3024   38.2562   -6.0289 C.ar        1 MOL      -0.0602
     18 CD2        35.5756   38.1569   -6.8663 C.ar        1 MOL      -0.0602
     19 CE1        33.0827   36.9306   -6.4468 C.ar        1 MOL      -0.0686
     20 CE2        35.3624   36.8275   -7.2837 C.ar        1 MOL      -0.0686
     21 CZ         34.1172   36.2120   -7.0811 C.ar        1 MOL      -0.0687
     22 C          35.3325   42.1170   -7.2993 C.2         1 MOL       0.1844
     23 O          35.5545   43.3245   -7.2666 O.2         1 MOL      -0.3964
     24 N          34.6516   41.6071   -8.3205 N.am        1 MOL      -0.2692
     25 CA         34.0796   42.3333   -9.4218 C.3         1 MOL       0.1038
     26 C          32.8912   43.1034   -8.9890 C.2         1 MOL       0.0621
     27 O          32.6902   44.3693   -9.4251 O.co2       1 MOL      -0.5664
     28 CB         33.7235   41.3390  -10.5673 C.3         1 MOL       0.0159
     29 CG         33.5198   41.8542  -11.9568 C.ar        1 MOL      -0.0392
     30 CD1        33.8455   43.1695  -12.3875 C.ar        1 MOL      -0.0602
     31 CD2        33.0279   40.9433  -12.9243 C.ar        1 MOL      -0.0602
     32 CE1        33.7011   43.5448  -13.7358 C.ar        1 MOL      -0.0686
     33 CE2        32.8851   41.3183  -14.2701 C.ar        1 MOL      -0.0686
     34 CZ         33.2283   42.6172  -14.6793 C.ar        1 MOL      -0.0687
     35 OXT        32.0416   42.6131   -8.0554 O.co2       1 MOL      -0.5664
     36 H1         38.5983   38.2527   -5.4520 H           1 MOL       0.2014
     37 H2         39.5480   39.5537   -5.0357 H           1 MOL       0.2014
     38 H3         38.2432   39.7565   -6.0507 H           1 MOL       0.2014
     39 H4         36.7572   39.0385   -4.2755 H           1 MOL       0.1089
     40 H5         37.7614   39.1428   -1.9086 H           1 MOL       0.0499
     41 H6         39.3466   39.1629   -2.6458 H           1 MOL       0.0499
     42 H7         40.0250   37.1217   -4.0601 H           1 MOL       0.0557
     43 H8         36.4934   37.1086   -1.7410 H           1 MOL       0.0557
     44 H9         39.8807   34.7214   -4.2720 H           1 MOL       0.0599
     45 H10        36.3642   34.7140   -1.9619 H           1 MOL       0.0599
     46 H11        38.0572   33.5087   -3.2208 H           1 MOL       0.0559
     47 H12        37.5251   42.5062   -5.6953 H           1 MOL       0.0496
     48 H13        36.0851   42.7734   -4.7326 H           1 MOL       0.0496
     49 H14        36.6063   40.6015   -6.7856 H           1 MOL       0.0576
     50 H15        33.7767   40.8403   -5.7905 H           1 MOL       0.0454
     51 H16        34.8430   40.1712   -4.6156 H           1 MOL       0.0454
     52 H17        32.5414   38.7380   -5.5455 H           1 MOL       0.0557
     53 H18        36.5063   38.5548   -6.9979 H           1 MOL       0.0557
     54 H19        32.1822   36.4828   -6.2901 H           1 MOL       0.0599
     55 H20        36.1210   36.3028   -7.7287 H           1 MOL       0.0599
     56 H21        33.9644   35.2534   -7.3848 H           1 MOL       0.0559
     57 H22        34.5515   40.6421   -8.3403 H           1 MOL       0.1876
     58 H23        34.8502   43.0157   -9.7899 H           1 MOL       0.0749
     59 H24        32.8236   40.7849  -10.2730 H           1 MOL       0.0467
     60 H25        34.5322   40.6048  -10.6335 H           1 MOL       0.0467
     61 H26        34.2063   43.8641  -11.7357 H           1 MOL       0.0557
     62 H27        32.7836   39.9869  -12.6535 H           1 MOL       0.0557
     63 H28        33.9574   44.4890  -14.0305 H           1 MOL       0.0599
     64 H29        32.5436   40.6412  -14.9565 H           1 MOL       0.0599
     65 H30        33.1443   42.8859  -15.6608 H           1 MOL       0.0559
@<TRIPOS>BOND
     1    24    25   1
     2    25    28   1
     3    25    26   1
     4    26    27  ar
     5    26    35  ar
     6    28    29   1
     7    29    30  ar
     8    29    31  ar
     9    31    33  ar
    10    33    34  ar
    11    32    34  ar
    12    30    32  ar
    13     2     1   1
    14     3     2   1
    15     2     6   1
    16     3     4  ar
    17     3     5  ar
    18    13     3   1
    19     6     7   1
    20     7     8  ar
    21     7     9  ar
    22     8    10  ar
    23     9    11  ar
    24    10    12  ar
    25    11    12  ar
    26    14    13   1
    27    14    15   1
    28    22    14   1
    29    15    16   1
    30    16    17  ar
    31    16    18  ar
    32    17    19  ar
    33    18    20  ar
    34    19    21  ar
    35    20    21  ar
    36    22    23   2
    37    22    24  am
    38     1    36   1
    39     1    37   1
    40     1    38   1
    41     2    39   1
    42     6    40   1
    43     6    41   1
    44     8    42   1
    45     9    43   1
    46    10    44   1
    47    11    45   1
    48    12    46   1
    49    13    47   1
    50    13    48   1
    51    14    49   1
    52    15    50   1
    53    15    51   1
    54    17    52   1
    55    18    53   1
    56    19    54   1
    57    20    55   1
    58    21    56   1
    59    24    57   1
    60    25    58   1
    61    28    59   1
    62    28    60   1
    63    30    61   1
    64    31    62   1
    65    32    63   1
    66    33    64   1
    67    34    65   1
@<TRIPOS>SUBSTRUCTURE
     1  MOL      2

