@<TRIPOS>MOLECULE
1os0_ligand_082
    65    67
SMALL
GAST_HUCK
****
This file was generated by PARSER (from files_GN.cpp)

@<TRIPOS>ATOM
      1 N          33.8020   42.6107   -6.0725 N.4         1 MOL       0.2351
      2 CA         35.0466   41.8946   -6.4146 C.3         1 MOL       0.0466
      3 P          34.7682   40.8588   -7.7084 P.3         1 MOL       0.0403
      4 O1P        34.6769   41.6385   -8.9179 O.co2       1 MOL      -0.6153
      5 O2P        35.8880   39.9683   -7.8802 O.co2       1 MOL      -0.6153
      6 CB         35.6309   41.1711   -5.1600 C.3         1 MOL       0.0407
      7 CG         35.8248   42.0737   -3.9873 C.ar        1 MOL      -0.0360
      8 CD1        36.8301   43.0688   -4.0051 C.ar        1 MOL      -0.0601
      9 CD2        34.9988   41.9668   -2.8441 C.ar        1 MOL      -0.0601
     10 CE1        36.9942   43.9412   -2.9120 C.ar        1 MOL      -0.0686
     11 CE2        35.1581   42.8394   -1.7537 C.ar        1 MOL      -0.0686
     12 CZ         36.1579   43.8268   -1.7859 C.ar        1 MOL      -0.0687
     13 CM         33.3469   39.9935   -7.5416 C.3         1 MOL       0.0402
     14 CA         33.1395   38.7534   -8.4757 C.3         1 MOL       0.0742
     15 CB         31.8953   37.8955   -8.0259 C.3         1 MOL       0.0021
     16 CG         32.2185   36.4486   -7.8563 C.ar        1 MOL      -0.0405
     17 CD1        31.9804   35.5237   -8.8971 C.ar        1 MOL      -0.0602
     18 CD2        32.8147   35.9880   -6.6599 C.ar        1 MOL      -0.0602
     19 CE1        32.3191   34.1670   -8.7440 C.ar        1 MOL      -0.0686
     20 CE2        33.1482   34.6298   -6.5006 C.ar        1 MOL      -0.0686
     21 CZ         32.8990   33.7174   -7.5429 C.ar        1 MOL      -0.0687
     22 C          33.0439   39.1095   -9.8950 C.2         1 MOL       0.1844
     23 O          32.1610   39.8800  -10.2503 O.2         1 MOL      -0.3964
     24 N          33.8489   38.5407  -10.7922 N.am        1 MOL      -0.2692
     25 CA         33.7541   38.6407  -12.2268 C.3         1 MOL       0.1038
     26 C          32.4623   38.0699  -12.6818 C.2         1 MOL       0.0621
     27 O          32.1014   36.8081  -12.3467 O.co2       1 MOL      -0.5664
     28 CB         34.9848   37.9322  -12.8779 C.3         1 MOL       0.0159
     29 CG         34.9416   37.7923  -14.3661 C.ar        1 MOL      -0.0392
     30 CD1        35.5770   38.7304  -15.2157 C.ar        1 MOL      -0.0602
     31 CD2        34.2616   36.7023  -14.9613 C.ar        1 MOL      -0.0602
     32 CE1        35.5185   38.5894  -16.6162 C.ar        1 MOL      -0.0686
     33 CE2        34.2010   36.5622  -16.3583 C.ar        1 MOL      -0.0686
     34 CZ         34.8257   37.5080  -17.1863 C.ar        1 MOL      -0.0687
     35 OXT        31.6040   38.8106  -13.4157 O.co2       1 MOL      -0.5664
     36 H1         33.9885   43.3192   -5.3587 H           1 MOL       0.2014
     37 H2         33.1164   41.9499   -5.6971 H           1 MOL       0.2014
     38 H3         33.4200   43.0690   -6.9025 H           1 MOL       0.2014
     39 H4         35.7696   42.6434   -6.7482 H           1 MOL       0.1089
     40 H5         36.6026   40.7338   -5.4057 H           1 MOL       0.0499
     41 H6         34.9772   40.3402   -4.8801 H           1 MOL       0.0499
     42 H7         37.4485   43.1662   -4.8152 H           1 MOL       0.0557
     43 H8         34.2590   41.2635   -2.8026 H           1 MOL       0.0557
     44 H9         37.7199   44.6605   -2.9362 H           1 MOL       0.0599
     45 H10        34.5474   42.7543   -0.9369 H           1 MOL       0.0599
     46 H11        36.2718   44.4640   -0.9942 H           1 MOL       0.0559
     47 H12        32.5020   40.6742   -7.6663 H           1 MOL       0.0496
     48 H13        33.3204   39.6425   -6.5090 H           1 MOL       0.0496
     49 H14        34.0358   38.1388   -8.3398 H           1 MOL       0.0576
     50 H15        31.0637   38.0005   -8.7302 H           1 MOL       0.0454
     51 H16        31.4892   38.2562   -7.0765 H           1 MOL       0.0454
     52 H17        31.5663   35.8330   -9.7793 H           1 MOL       0.0557
     53 H18        33.0127   36.6378   -5.8937 H           1 MOL       0.0557
     54 H19        32.1427   33.5060   -9.5023 H           1 MOL       0.0599
     55 H20        33.5707   34.3045   -5.6299 H           1 MOL       0.0599
     56 H21        33.1379   32.7321   -7.4281 H           1 MOL       0.0559
     57 H22        34.5409   37.9534  -10.4450 H           1 MOL       0.1876
     58 H23        33.7973   39.7004  -12.5065 H           1 MOL       0.0749
     59 H24        35.1086   36.9369  -12.4400 H           1 MOL       0.0467
     60 H25        35.8788   38.4966  -12.5979 H           1 MOL       0.0467
     61 H26        36.0936   39.5191  -14.8237 H           1 MOL       0.0557
     62 H27        33.8093   35.9936  -14.3780 H           1 MOL       0.0557
     63 H28        35.9812   39.2742  -17.2186 H           1 MOL       0.0599
     64 H29        33.7025   35.7683  -16.7708 H           1 MOL       0.0599
     65 H30        34.7782   37.4088  -18.2038 H           1 MOL       0.0559
@<TRIPOS>BOND
     1    24    25   1
     2    25    28   1
     3    25    26   1
     4    26    27  ar
     5    26    35  ar
     6    28    29   1
     7    29    30  ar
     8    29    31  ar
     9    31    33  ar
    10    33    34  ar
    11    32    34  ar
    12    30    32  ar
    13     2     1   1
    14     3     2   1
    15     2     6   1
    16     3     4  ar
    17     3     5  ar
    18    13     3   1
    19     6     7   1
    20     7     8  ar
    21     7     9  ar
    22     8    10  ar
    23     9    11  ar
    24    10    12  ar
    25    11    12  ar
    26    14    13   1
    27    14    15   1
    28    22    14   1
    29    15    16   1
    30    16    17  ar
    31    16    18  ar
    32    17    19  ar
    33    18    20  ar
    34    19    21  ar
    35    20    21  ar
    36    22    23   2
    37    22    24  am
    38     1    36   1
    39     1    37   1
    40     1    38   1
    41     2    39   1
    42     6    40   1
    43     6    41   1
    44     8    42   1
    45     9    43   1
    46    10    44   1
    47    11    45   1
    48    12    46   1
    49    13    47   1
    50    13    48   1
    51    14    49   1
    52    15    50   1
    53    15    51   1
    54    17    52   1
    55    18    53   1
    56    19    54   1
    57    20    55   1
    58    21    56   1
    59    24    57   1
    60    25    58   1
    61    28    59   1
    62    28    60   1
    63    30    61   1
    64    31    62   1
    65    32    63   1
    66    33    64   1
    67    34    65   1
@<TRIPOS>SUBSTRUCTURE
     1  MOL      2

