@<TRIPOS>MOLECULE
1os0_ligand_032
    65    67
SMALL
GAST_HUCK
****
This file was generated by PARSER (from files_GN.cpp)

@<TRIPOS>ATOM
      1 N          34.8666   41.6543   -4.5345 N.4         1 MOL       0.2351
      2 CA         35.8018   41.2578   -5.6000 C.3         1 MOL       0.0466
      3 P          35.2693   41.7848   -7.1060 P.3         1 MOL       0.0403
      4 O1P        35.9068   43.0599   -7.3156 O.co2       1 MOL      -0.6153
      5 O2P        35.7721   40.9460   -8.1620 O.co2       1 MOL      -0.6153
      6 CB         36.1721   39.7406   -5.5004 C.3         1 MOL       0.0407
      7 CG         35.3497   38.7654   -6.2803 C.ar        1 MOL      -0.0360
      8 CD1        35.9353   38.0138   -7.3303 C.ar        1 MOL      -0.0601
      9 CD2        33.9676   38.6036   -6.0249 C.ar        1 MOL      -0.0601
     10 CE1        35.1571   37.1507   -8.1205 C.ar        1 MOL      -0.0686
     11 CE2        33.1895   37.7349   -6.8118 C.ar        1 MOL      -0.0686
     12 CZ         33.7828   37.0122   -7.8631 C.ar        1 MOL      -0.0687
     13 CM         33.6173   42.0275   -7.2568 C.3         1 MOL       0.0402
     14 CA         32.9737   42.3975   -8.6528 C.3         1 MOL       0.0742
     15 CB         33.9146   43.0992   -9.6854 C.3         1 MOL       0.0021
     16 CG         33.2392   43.8327  -10.7892 C.ar        1 MOL      -0.0405
     17 CD1        32.3317   44.8814  -10.5031 C.ar        1 MOL      -0.0602
     18 CD2        33.5363   43.5562  -12.1441 C.ar        1 MOL      -0.0602
     19 CE1        31.7276   45.6198  -11.5380 C.ar        1 MOL      -0.0686
     20 CE2        32.9447   44.3014  -13.1814 C.ar        1 MOL      -0.0686
     21 CZ         32.0369   45.3314  -12.8790 C.ar        1 MOL      -0.0687
     22 C          32.2673   41.2711   -9.2669 C.2         1 MOL       0.1844
     23 O          32.8797   40.2248   -9.4405 O.2         1 MOL      -0.3964
     24 N          30.9869   41.3995   -9.6148 N.am        1 MOL      -0.2692
     25 CA         30.1081   40.4635  -10.2603 C.3         1 MOL       0.1038
     26 C          30.3704   39.0474   -9.9049 C.2         1 MOL       0.0621
     27 O          31.2677   38.3100  -10.5969 O.co2       1 MOL      -0.5664
     28 CB         30.0057   40.7583  -11.7898 C.3         1 MOL       0.0159
     29 CG         28.9144   40.0020  -12.4761 C.ar        1 MOL      -0.0392
     30 CD1        27.6427   40.5886  -12.6902 C.ar        1 MOL      -0.0602
     31 CD2        29.1200   38.6694  -12.9081 C.ar        1 MOL      -0.0602
     32 CE1        26.6077   39.8634  -13.3093 C.ar        1 MOL      -0.0686
     33 CE2        28.0823   37.9402  -13.5203 C.ar        1 MOL      -0.0686
     34 CZ         26.8256   38.5377  -13.7204 C.ar        1 MOL      -0.0687
     35 OXT        30.0241   38.6019   -8.6757 O.co2       1 MOL      -0.5664
     36 H1         35.2591   41.3958   -3.6251 H           1 MOL       0.2014
     37 H2         33.9802   41.1699   -4.6576 H           1 MOL       0.2014
     38 H3         34.6926   42.6637   -4.5400 H           1 MOL       0.2014
     39 H4         36.7199   41.8069   -5.3727 H           1 MOL       0.1089
     40 H5         36.1500   39.4354   -4.4504 H           1 MOL       0.0499
     41 H6         37.2215   39.6503   -5.8024 H           1 MOL       0.0499
     42 H7         36.9321   38.1066   -7.5434 H           1 MOL       0.0557
     43 H8         33.5238   39.1115   -5.2627 H           1 MOL       0.0557
     44 H9         35.5912   36.6243   -8.8817 H           1 MOL       0.0599
     45 H10        32.1925   37.6261   -6.6183 H           1 MOL       0.0599
     46 H11        33.2158   36.3849   -8.4384 H           1 MOL       0.0559
     47 H12        33.3868   42.8401   -6.5567 H           1 MOL       0.0496
     48 H13        33.1225   41.1450   -6.8424 H           1 MOL       0.0496
     49 H14        32.2147   43.1391   -8.3896 H           1 MOL       0.0576
     50 H15        34.6127   42.3614  -10.0873 H           1 MOL       0.0454
     51 H16        34.5111   43.8500   -9.1675 H           1 MOL       0.0454
     52 H17        32.1071   45.1257   -9.5376 H           1 MOL       0.0557
     53 H18        34.2005   42.8198  -12.3916 H           1 MOL       0.0557
     54 H19        31.0756   46.3760  -11.3159 H           1 MOL       0.0599
     55 H20        33.1804   44.1041  -14.1577 H           1 MOL       0.0599
     56 H21        31.6058   45.8752  -13.6304 H           1 MOL       0.0559
     57 H22        30.5926   42.2741   -9.4613 H           1 MOL       0.1876
     58 H23        29.1173   40.6930   -9.8496 H           1 MOL       0.0749
     59 H24        30.9637   40.5526  -12.2743 H           1 MOL       0.0467
     60 H25        29.8230   41.8305  -11.9287 H           1 MOL       0.0467
     61 H26        27.4613   41.5495  -12.3895 H           1 MOL       0.0557
     62 H27        30.0263   38.2181  -12.7784 H           1 MOL       0.0557
     63 H28        25.6934   40.2994  -13.4556 H           1 MOL       0.0599
     64 H29        28.2415   36.9748  -13.8140 H           1 MOL       0.0599
     65 H30        26.0727   38.0078  -14.1625 H           1 MOL       0.0559
@<TRIPOS>BOND
     1    24    25   1
     2    25    28   1
     3    25    26   1
     4    26    27  ar
     5    26    35  ar
     6    28    29   1
     7    29    30  ar
     8    29    31  ar
     9    31    33  ar
    10    33    34  ar
    11    32    34  ar
    12    30    32  ar
    13     2     1   1
    14     3     2   1
    15     2     6   1
    16     3     4  ar
    17     3     5  ar
    18    13     3   1
    19     6     7   1
    20     7     8  ar
    21     7     9  ar
    22     8    10  ar
    23     9    11  ar
    24    10    12  ar
    25    11    12  ar
    26    14    13   1
    27    14    15   1
    28    22    14   1
    29    15    16   1
    30    16    17  ar
    31    16    18  ar
    32    17    19  ar
    33    18    20  ar
    34    19    21  ar
    35    20    21  ar
    36    22    23   2
    37    22    24  am
    38     1    36   1
    39     1    37   1
    40     1    38   1
    41     2    39   1
    42     6    40   1
    43     6    41   1
    44     8    42   1
    45     9    43   1
    46    10    44   1
    47    11    45   1
    48    12    46   1
    49    13    47   1
    50    13    48   1
    51    14    49   1
    52    15    50   1
    53    15    51   1
    54    17    52   1
    55    18    53   1
    56    19    54   1
    57    20    55   1
    58    21    56   1
    59    24    57   1
    60    25    58   1
    61    28    59   1
    62    28    60   1
    63    30    61   1
    64    31    62   1
    65    32    63   1
    66    33    64   1
    67    34    65   1
@<TRIPOS>SUBSTRUCTURE
     1  MOL      2

