@<TRIPOS>MOLECULE
1os0_ligand_050
    65    67
SMALL
GAST_HUCK
****
This file was generated by PARSER (from files_GN.cpp)

@<TRIPOS>ATOM
      1 N          32.4814   44.2185   -8.3489 N.4         1 MOL       0.2351
      2 CA         32.8449   42.8331   -8.7065 C.3         1 MOL       0.0466
      3 P          34.2100   42.3382   -7.8658 P.3         1 MOL       0.0403
      4 O1P        34.9064   41.3310   -8.6448 O.co2       1 MOL      -0.6153
      5 O2P        35.1248   43.4497   -7.7072 O.co2       1 MOL      -0.6153
      6 CB         32.9854   42.7694  -10.2661 C.3         1 MOL       0.0407
      7 CG         31.6866   42.9092  -10.9834 C.ar        1 MOL      -0.0360
      8 CD1        30.9121   41.7581  -11.2689 C.ar        1 MOL      -0.0601
      9 CD2        31.2155   44.1706  -11.4231 C.ar        1 MOL      -0.0601
     10 CE1        29.7131   41.8604  -11.9972 C.ar        1 MOL      -0.0686
     11 CE2        30.0092   44.2740  -12.1422 C.ar        1 MOL      -0.0686
     12 CZ         29.2599   43.1188  -12.4346 C.ar        1 MOL      -0.0687
     13 CM         33.9297   41.7966   -6.3104 C.3         1 MOL       0.0402
     14 CA         34.9780   40.8681   -5.5777 C.3         1 MOL       0.0742
     15 CB         36.4494   40.8590   -6.1281 C.3         1 MOL       0.0021
     16 CG         37.3910   39.9672   -5.3799 C.ar        1 MOL      -0.0405
     17 CD1        37.6300   38.6369   -5.8117 C.ar        1 MOL      -0.0602
     18 CD2        38.0970   40.4518   -4.2493 C.ar        1 MOL      -0.0602
     19 CE1        38.5310   37.8051   -5.1116 C.ar        1 MOL      -0.0686
     20 CE2        38.9862   39.6149   -3.5433 C.ar        1 MOL      -0.0686
     21 CZ         39.2020   38.2903   -3.9703 C.ar        1 MOL      -0.0687
     22 C          34.9528   41.1715   -4.1401 C.2         1 MOL       0.1844
     23 O          34.3594   40.4248   -3.3646 O.2         1 MOL      -0.3964
     24 N          35.5215   42.2816   -3.6906 N.am        1 MOL      -0.2692
     25 CA         35.6568   42.7542   -2.3359 C.3         1 MOL       0.1038
     26 C          36.5961   43.9024   -2.4013 C.2         1 MOL       0.0621
     27 O          36.2869   45.0861   -1.8202 O.co2       1 MOL      -0.5664
     28 CB         36.1755   41.6365   -1.3714 C.3         1 MOL       0.0159
     29 CG         36.6369   42.1063   -0.0267 C.ar        1 MOL      -0.0392
     30 CD1        35.7308   42.2499    1.0514 C.ar        1 MOL      -0.0602
     31 CD2        38.0101   42.3609    0.2085 C.ar        1 MOL      -0.0602
     32 CE1        36.1927   42.5731    2.3417 C.ar        1 MOL      -0.0686
     33 CE2        38.4713   42.7151    1.4902 C.ar        1 MOL      -0.0686
     34 CZ         37.5621   42.8111    2.5585 C.ar        1 MOL      -0.0687
     35 OXT        37.8259   43.7507   -2.9537 O.co2       1 MOL      -0.5664
     36 H1         31.5898   44.4765   -8.7856 H           1 MOL       0.2014
     37 H2         33.2012   44.8481   -8.7035 H           1 MOL       0.2014
     38 H3         32.4038   44.3370   -7.3350 H           1 MOL       0.2014
     39 H4         32.0186   42.1851   -8.3989 H           1 MOL       0.1089
     40 H5         33.4301   41.8204  -10.5793 H           1 MOL       0.0499
     41 H6         33.6852   43.5454  -10.5989 H           1 MOL       0.0499
     42 H7         31.2289   40.8345  -10.9605 H           1 MOL       0.0557
     43 H8         31.7472   45.0216  -11.2174 H           1 MOL       0.0557
     44 H9         29.1690   41.0219  -12.2006 H           1 MOL       0.0599
     45 H10        29.6776   45.1871  -12.4528 H           1 MOL       0.0599
     46 H11        28.3905   43.1925  -12.9617 H           1 MOL       0.0559
     47 H12        32.9819   41.2504   -6.3460 H           1 MOL       0.0496
     48 H13        33.7501   42.6967   -5.7117 H           1 MOL       0.0496
     49 H14        34.6176   39.8417   -5.7132 H           1 MOL       0.0576
     50 H15        36.8395   41.8791   -6.1567 H           1 MOL       0.0454
     51 H16        36.4467   40.5132   -7.1636 H           1 MOL       0.0454
     52 H17        37.1519   38.2647   -6.6400 H           1 MOL       0.0557
     53 H18        37.9663   41.4175   -3.9172 H           1 MOL       0.0557
     54 H19        38.6971   36.8446   -5.4327 H           1 MOL       0.0599
     55 H20        39.4739   39.9615   -2.7135 H           1 MOL       0.0599
     56 H21        39.8571   37.6826   -3.4646 H           1 MOL       0.0559
     57 H22        35.9357   42.8396   -4.3676 H           1 MOL       0.1876
     58 H23        34.6841   43.1131   -1.9851 H           1 MOL       0.0749
     59 H24        37.0003   41.0988   -1.8666 H           1 MOL       0.0467
     60 H25        35.3698   40.9119   -1.2040 H           1 MOL       0.0467
     61 H26        34.7293   42.0960    0.9057 H           1 MOL       0.0557
     62 H27        38.6850   42.2879   -0.5566 H           1 MOL       0.0557
     63 H28        35.5272   42.6491    3.1181 H           1 MOL       0.0599
     64 H29        39.4659   42.9063    1.6392 H           1 MOL       0.0599
     65 H30        37.8973   43.0600    3.4927 H           1 MOL       0.0559
@<TRIPOS>BOND
     1    24    25   1
     2    25    28   1
     3    25    26   1
     4    26    27  ar
     5    26    35  ar
     6    28    29   1
     7    29    30  ar
     8    29    31  ar
     9    31    33  ar
    10    33    34  ar
    11    32    34  ar
    12    30    32  ar
    13     2     1   1
    14     3     2   1
    15     2     6   1
    16     3     4  ar
    17     3     5  ar
    18    13     3   1
    19     6     7   1
    20     7     8  ar
    21     7     9  ar
    22     8    10  ar
    23     9    11  ar
    24    10    12  ar
    25    11    12  ar
    26    14    13   1
    27    14    15   1
    28    22    14   1
    29    15    16   1
    30    16    17  ar
    31    16    18  ar
    32    17    19  ar
    33    18    20  ar
    34    19    21  ar
    35    20    21  ar
    36    22    23   2
    37    22    24  am
    38     1    36   1
    39     1    37   1
    40     1    38   1
    41     2    39   1
    42     6    40   1
    43     6    41   1
    44     8    42   1
    45     9    43   1
    46    10    44   1
    47    11    45   1
    48    12    46   1
    49    13    47   1
    50    13    48   1
    51    14    49   1
    52    15    50   1
    53    15    51   1
    54    17    52   1
    55    18    53   1
    56    19    54   1
    57    20    55   1
    58    21    56   1
    59    24    57   1
    60    25    58   1
    61    28    59   1
    62    28    60   1
    63    30    61   1
    64    31    62   1
    65    32    63   1
    66    33    64   1
    67    34    65   1
@<TRIPOS>SUBSTRUCTURE
     1  MOL      2

