@<TRIPOS>MOLECULE
1os0_ligand_040
    65    67
SMALL
GAST_HUCK
****
This file was generated by PARSER (from files_GN.cpp)

@<TRIPOS>ATOM
      1 N          46.8753   39.5026   -1.9232 N.4         1 MOL       0.2351
      2 CA         46.1483   38.4670   -2.6933 C.3         1 MOL       0.0466
      3 P          44.5185   38.8629   -2.7938 P.3         1 MOL       0.0403
      4 O1P        43.9016   38.7367   -1.4943 O.co2       1 MOL      -0.6153
      5 O2P        44.3759   40.2520   -3.1622 O.co2       1 MOL      -0.6153
      6 CB         46.4214   37.0474   -2.1003 C.3         1 MOL       0.0407
      7 CG         47.8438   36.6153   -2.1845 C.ar        1 MOL      -0.0360
      8 CD1        48.5861   36.7991   -3.3743 C.ar        1 MOL      -0.0601
      9 CD2        48.4812   35.9946   -1.0770 C.ar        1 MOL      -0.0601
     10 CE1        49.9318   36.4010   -3.4559 C.ar        1 MOL      -0.0686
     11 CE2        49.8304   35.5869   -1.1638 C.ar        1 MOL      -0.0686
     12 CZ         50.5577   35.7974   -2.3508 C.ar        1 MOL      -0.0687
     13 CM         43.7367   37.9365   -3.9391 C.3         1 MOL       0.0402
     14 CA         42.4374   38.5102   -4.6101 C.3         1 MOL       0.0742
     15 CB         42.1084   37.7202   -5.9149 C.3         1 MOL       0.0021
     16 CG         41.9202   36.2481   -5.7435 C.ar        1 MOL      -0.0405
     17 CD1        40.6548   35.7301   -5.3755 C.ar        1 MOL      -0.0602
     18 CD2        42.9834   35.3455   -5.9801 C.ar        1 MOL      -0.0602
     19 CE1        40.4562   34.3414   -5.2683 C.ar        1 MOL      -0.0686
     20 CE2        42.7829   33.9602   -5.8684 C.ar        1 MOL      -0.0686
     21 CZ         41.5191   33.4562   -5.5248 C.ar        1 MOL      -0.0687
     22 C          41.2509   38.6511   -3.7547 C.2         1 MOL       0.1844
     23 O          41.2629   38.2119   -2.6083 O.2         1 MOL      -0.3964
     24 N          40.1497   39.2149   -4.2579 N.am        1 MOL      -0.2692
     25 CA         38.9203   39.4795   -3.5631 C.3         1 MOL       0.1038
     26 C          38.0244   38.3163   -3.6827 C.2         1 MOL       0.0621
     27 O          37.4808   37.9740   -4.8822 O.co2       1 MOL      -0.5664
     28 CB         38.2587   40.7762   -4.1169 C.3         1 MOL       0.0159
     29 CG         37.2622   41.3892   -3.1990 C.ar        1 MOL      -0.0392
     30 CD1        37.7009   42.0903   -2.0475 C.ar        1 MOL      -0.0602
     31 CD2        35.8724   41.3171   -3.4588 C.ar        1 MOL      -0.0602
     32 CE1        36.7768   42.7218   -1.1922 C.ar        1 MOL      -0.0686
     33 CE2        34.9482   41.9476   -2.6023 C.ar        1 MOL      -0.0686
     34 CZ         35.4000   42.6482   -1.4706 C.ar        1 MOL      -0.0687
     35 OXT        37.8639   37.4498   -2.6559 O.co2       1 MOL      -0.5664
     36 H1         47.8510   39.2139   -1.7940 H           1 MOL       0.2014
     37 H2         46.4382   39.6380   -1.0113 H           1 MOL       0.2014
     38 H3         46.8612   40.3813   -2.4476 H           1 MOL       0.2014
     39 H4         46.5498   38.5079   -3.7085 H           1 MOL       0.1089
     40 H5         45.8280   36.3000   -2.6433 H           1 MOL       0.0499
     41 H6         46.0721   37.0289   -1.0622 H           1 MOL       0.0499
     42 H7         48.1467   37.2238   -4.1957 H           1 MOL       0.0557
     43 H8         47.9752   35.8385   -0.2083 H           1 MOL       0.0557
     44 H9         50.4617   36.5514   -4.3180 H           1 MOL       0.0599
     45 H10        50.2778   35.1456   -0.3620 H           1 MOL       0.0599
     46 H11        51.5338   35.5090   -2.4069 H           1 MOL       0.0559
     47 H12        43.5068   36.9665   -3.4837 H           1 MOL       0.0496
     48 H13        44.4777   37.7535   -4.7289 H           1 MOL       0.0496
     49 H14        42.6912   39.5287   -4.9461 H           1 MOL       0.0576
     50 H15        42.9154   37.8913   -6.6472 H           1 MOL       0.0454
     51 H16        41.2154   38.1378   -6.3951 H           1 MOL       0.0454
     52 H17        39.8759   36.3549   -5.1936 H           1 MOL       0.0557
     53 H18        43.9088   35.6914   -6.2338 H           1 MOL       0.0557
     54 H19        39.5364   33.9785   -5.0125 H           1 MOL       0.0599
     55 H20        43.5593   33.3146   -6.0472 H           1 MOL       0.0599
     56 H21        41.3674   32.4461   -5.4632 H           1 MOL       0.0559
     57 H22        40.2136   39.5359   -5.1750 H           1 MOL       0.1876
     58 H23        39.1524   39.6451   -2.4974 H           1 MOL       0.0749
     59 H24        37.8085   40.5652   -5.0948 H           1 MOL       0.0467
     60 H25        39.0252   41.5268   -4.3089 H           1 MOL       0.0467
     61 H26        38.6993   42.1695   -1.8395 H           1 MOL       0.0557
     62 H27        35.5244   40.8171   -4.2798 H           1 MOL       0.0557
     63 H28        37.1068   43.2328   -0.3729 H           1 MOL       0.0599
     64 H29        33.9488   41.8962   -2.8033 H           1 MOL       0.0599
     65 H30        34.7291   43.1113   -0.8522 H           1 MOL       0.0559
@<TRIPOS>BOND
     1    24    25   1
     2    25    28   1
     3    25    26   1
     4    26    27  ar
     5    26    35  ar
     6    28    29   1
     7    29    30  ar
     8    29    31  ar
     9    31    33  ar
    10    33    34  ar
    11    32    34  ar
    12    30    32  ar
    13     2     1   1
    14     3     2   1
    15     2     6   1
    16     3     4  ar
    17     3     5  ar
    18    13     3   1
    19     6     7   1
    20     7     8  ar
    21     7     9  ar
    22     8    10  ar
    23     9    11  ar
    24    10    12  ar
    25    11    12  ar
    26    14    13   1
    27    14    15   1
    28    22    14   1
    29    15    16   1
    30    16    17  ar
    31    16    18  ar
    32    17    19  ar
    33    18    20  ar
    34    19    21  ar
    35    20    21  ar
    36    22    23   2
    37    22    24  am
    38     1    36   1
    39     1    37   1
    40     1    38   1
    41     2    39   1
    42     6    40   1
    43     6    41   1
    44     8    42   1
    45     9    43   1
    46    10    44   1
    47    11    45   1
    48    12    46   1
    49    13    47   1
    50    13    48   1
    51    14    49   1
    52    15    50   1
    53    15    51   1
    54    17    52   1
    55    18    53   1
    56    19    54   1
    57    20    55   1
    58    21    56   1
    59    24    57   1
    60    25    58   1
    61    28    59   1
    62    28    60   1
    63    30    61   1
    64    31    62   1
    65    32    63   1
    66    33    64   1
    67    34    65   1
@<TRIPOS>SUBSTRUCTURE
     1  MOL      2

