@<TRIPOS>MOLECULE
1os0_ligand_027
    65    67
SMALL
GAST_HUCK
****
This file was generated by PARSER (from files_GN.cpp)

@<TRIPOS>ATOM
      1 N          35.0522   41.7498   -3.0184 N.4         1 MOL       0.2351
      2 CA         36.1966   42.1410   -3.8570 C.3         1 MOL       0.0466
      3 P          35.8833   41.8274   -5.4848 P.3         1 MOL       0.0403
      4 O1P        36.3977   42.9564   -6.2151 O.co2       1 MOL      -0.6153
      5 O2P        36.6175   40.6763   -5.9368 O.co2       1 MOL      -0.6153
      6 CB         37.5437   41.5552   -3.3012 C.3         1 MOL       0.0407
      7 CG         37.4700   40.1652   -2.7538 C.ar        1 MOL      -0.0360
      8 CD1        37.8467   39.0429   -3.5305 C.ar        1 MOL      -0.0601
      9 CD2        37.0078   39.9400   -1.4327 C.ar        1 MOL      -0.0601
     10 CE1        37.7199   37.7360   -3.0203 C.ar        1 MOL      -0.0686
     11 CE2        36.8741   38.6346   -0.9240 C.ar        1 MOL      -0.0686
     12 CZ         37.2249   37.5308   -1.7204 C.ar        1 MOL      -0.0687
     13 CM         34.2661   41.6550   -5.8949 C.3         1 MOL       0.0402
     14 CA         33.7983   41.7492   -7.3937 C.3         1 MOL       0.0742
     15 CB         34.2478   43.0612   -8.1152 C.3         1 MOL       0.0021
     16 CG         33.4390   43.4106   -9.3178 C.ar        1 MOL      -0.0405
     17 CD1        33.7115   42.8215  -10.5761 C.ar        1 MOL      -0.0602
     18 CD2        32.3905   44.3580   -9.2285 C.ar        1 MOL      -0.0602
     19 CE1        32.9798   43.1959  -11.7194 C.ar        1 MOL      -0.0686
     20 CE2        31.6543   44.7277  -10.3691 C.ar        1 MOL      -0.0686
     21 CZ         31.9561   44.1553  -11.6174 C.ar        1 MOL      -0.0687
     22 C          34.0915   40.5648   -8.2063 C.2         1 MOL       0.1844
     23 O          35.2609   40.2417   -8.3587 O.2         1 MOL      -0.3964
     24 N          33.1039   39.9073   -8.8156 N.am        1 MOL      -0.2692
     25 CA         33.1179   38.7239   -9.6394 C.3         1 MOL       0.1038
     26 C          34.4539   38.2175  -10.0483 C.2         1 MOL       0.0621
     27 O          34.9709   37.0965   -9.4948 O.co2       1 MOL      -0.5664
     28 CB         32.2114   38.8936  -10.9016 C.3         1 MOL       0.0159
     29 CG         30.7726   39.1799  -10.6281 C.ar        1 MOL      -0.0392
     30 CD1        30.1273   40.3034  -11.2017 C.ar        1 MOL      -0.0602
     31 CD2        29.9999   38.2985   -9.8324 C.ar        1 MOL      -0.0602
     32 CE1        28.7579   40.5439  -10.9766 C.ar        1 MOL      -0.0686
     33 CE2        28.6346   38.5464   -9.5924 C.ar        1 MOL      -0.0686
     34 CZ         28.0128   39.6700  -10.1648 C.ar        1 MOL      -0.0687
     35 OXT        35.2257   38.9043  -10.9209 O.co2       1 MOL      -0.5664
     36 H1         35.2790   41.9065   -2.0335 H           1 MOL       0.2014
     37 H2         34.8628   40.7547   -3.1736 H           1 MOL       0.2014
     38 H3         34.2406   42.3233   -3.2609 H           1 MOL       0.2014
     39 H4         36.2586   43.2297   -3.7566 H           1 MOL       0.1089
     40 H5         37.8984   42.2096   -2.4979 H           1 MOL       0.0499
     41 H6         38.3177   41.6093   -4.0735 H           1 MOL       0.0499
     42 H7         38.2095   39.1670   -4.4778 H           1 MOL       0.0557
     43 H8         36.7556   40.7276   -0.8314 H           1 MOL       0.0557
     44 H9         37.9841   36.9335   -3.5961 H           1 MOL       0.0599
     45 H10        36.5129   38.4890    0.0217 H           1 MOL       0.0599
     46 H11        37.1248   36.5821   -1.3524 H           1 MOL       0.0559
     47 H12        33.7282   42.4260   -5.3352 H           1 MOL       0.0496
     48 H13        33.9361   40.6928   -5.5013 H           1 MOL       0.0496
     49 H14        32.7077   41.8216   -7.3141 H           1 MOL       0.0576
     50 H15        35.3009   42.9940   -8.4069 H           1 MOL       0.0454
     51 H16        34.1837   43.8881   -7.4013 H           1 MOL       0.0454
     52 H17        34.4533   42.1245  -10.6705 H           1 MOL       0.0557
     53 H18        32.1610   44.7932   -8.3312 H           1 MOL       0.0557
     54 H19        33.1948   42.7716  -12.6248 H           1 MOL       0.0599
     55 H20        30.9027   45.4154  -10.2893 H           1 MOL       0.0599
     56 H21        31.4300   44.4334  -12.4479 H           1 MOL       0.0559
     57 H22        32.2154   40.2425   -8.6245 H           1 MOL       0.1876
     58 H23        32.6682   37.9449   -9.0203 H           1 MOL       0.0749
     59 H24        32.2453   37.9738  -11.4938 H           1 MOL       0.0467
     60 H25        32.6382   39.6838  -11.5269 H           1 MOL       0.0467
     61 H26        30.6450   40.9479  -11.8013 H           1 MOL       0.0557
     62 H27        30.4233   37.4626   -9.4254 H           1 MOL       0.0557
     63 H28        28.3007   41.3545  -11.4015 H           1 MOL       0.0599
     64 H29        28.0924   37.9090   -9.0025 H           1 MOL       0.0599
     65 H30        27.0189   39.8468   -9.9932 H           1 MOL       0.0559
@<TRIPOS>BOND
     1    24    25   1
     2    25    28   1
     3    25    26   1
     4    26    27  ar
     5    26    35  ar
     6    28    29   1
     7    29    30  ar
     8    29    31  ar
     9    31    33  ar
    10    33    34  ar
    11    32    34  ar
    12    30    32  ar
    13     2     1   1
    14     3     2   1
    15     2     6   1
    16     3     4  ar
    17     3     5  ar
    18    13     3   1
    19     6     7   1
    20     7     8  ar
    21     7     9  ar
    22     8    10  ar
    23     9    11  ar
    24    10    12  ar
    25    11    12  ar
    26    14    13   1
    27    14    15   1
    28    22    14   1
    29    15    16   1
    30    16    17  ar
    31    16    18  ar
    32    17    19  ar
    33    18    20  ar
    34    19    21  ar
    35    20    21  ar
    36    22    23   2
    37    22    24  am
    38     1    36   1
    39     1    37   1
    40     1    38   1
    41     2    39   1
    42     6    40   1
    43     6    41   1
    44     8    42   1
    45     9    43   1
    46    10    44   1
    47    11    45   1
    48    12    46   1
    49    13    47   1
    50    13    48   1
    51    14    49   1
    52    15    50   1
    53    15    51   1
    54    17    52   1
    55    18    53   1
    56    19    54   1
    57    20    55   1
    58    21    56   1
    59    24    57   1
    60    25    58   1
    61    28    59   1
    62    28    60   1
    63    30    61   1
    64    31    62   1
    65    32    63   1
    66    33    64   1
    67    34    65   1
@<TRIPOS>SUBSTRUCTURE
     1  MOL      2

