@<TRIPOS>MOLECULE
1os0_ligand_052
    65    67
SMALL
GAST_HUCK
****
This file was generated by PARSER (from files_GN.cpp)

@<TRIPOS>ATOM
      1 N          36.0641   40.3643   -8.1784 N.4         1 MOL       0.2351
      2 CA         34.7111   40.8420   -7.8459 C.3         1 MOL       0.0466
      3 P          34.4860   42.4251   -8.3397 P.3         1 MOL       0.0403
      4 O1P        35.2943   43.3329   -7.5670 O.co2       1 MOL      -0.6153
      5 O2P        35.0774   42.5724   -9.6443 O.co2       1 MOL      -0.6153
      6 CB         34.3714   40.5429   -6.3518 C.3         1 MOL       0.0407
      7 CG         35.3553   41.0420   -5.3477 C.ar        1 MOL      -0.0360
      8 CD1        35.3151   42.3793   -4.8845 C.ar        1 MOL      -0.0601
      9 CD2        36.3579   40.1828   -4.8336 C.ar        1 MOL      -0.0601
     10 CE1        36.2727   42.8568   -3.9720 C.ar        1 MOL      -0.0686
     11 CE2        37.3019   40.6515   -3.9020 C.ar        1 MOL      -0.0686
     12 CZ         37.2655   41.9919   -3.4767 C.ar        1 MOL      -0.0687
     13 CM         32.8743   42.9153   -8.3423 C.3         1 MOL       0.0402
     14 CA         32.1881   43.3361   -9.6889 C.3         1 MOL       0.0742
     15 CB         32.7619   44.6873  -10.2500 C.3         1 MOL       0.0021
     16 CG         32.6296   44.9029  -11.7155 C.ar        1 MOL      -0.0405
     17 CD1        31.3542   45.0635  -12.3052 C.ar        1 MOL      -0.0602
     18 CD2        33.7713   44.9040  -12.5538 C.ar        1 MOL      -0.0602
     19 CE1        31.2193   45.1917  -13.7002 C.ar        1 MOL      -0.0686
     20 CE2        33.6403   45.0256  -13.9483 C.ar        1 MOL      -0.0686
     21 CZ         32.3624   45.1634  -14.5226 C.ar        1 MOL      -0.0687
     22 C          32.1050   42.2185  -10.6435 C.2         1 MOL       0.1844
     23 O          33.1028   41.8818  -11.2660 O.2         1 MOL      -0.3964
     24 N          30.9374   41.6384  -10.9104 N.am        1 MOL      -0.2692
     25 CA         30.6775   40.6404  -11.9062 C.3         1 MOL       0.1038
     26 C          31.4160   39.3915  -11.5995 C.2         1 MOL       0.0621
     27 O          31.1104   38.6980  -10.4813 O.co2       1 MOL      -0.5664
     28 CB         30.8562   41.2148  -13.3600 C.3         1 MOL       0.0159
     29 CG         29.5816   41.3493  -14.1179 C.ar        1 MOL      -0.0392
     30 CD1        28.5944   42.2720  -13.6933 C.ar        1 MOL      -0.0602
     31 CD2        29.3191   40.5533  -15.2583 C.ar        1 MOL      -0.0602
     32 CE1        27.3766   42.3912  -14.3890 C.ar        1 MOL      -0.0686
     33 CE2        28.1014   40.6746  -15.9556 C.ar        1 MOL      -0.0686
     34 CZ         27.1286   41.5927  -15.5187 C.ar        1 MOL      -0.0687
     35 OXT        32.5393   39.0259  -12.2563 O.co2       1 MOL      -0.5664
     36 H1         36.1458   39.3825   -7.9133 H           1 MOL       0.2014
     37 H2         36.7690   40.9080   -7.6766 H           1 MOL       0.2014
     38 H3         36.2266   40.4531   -9.1827 H           1 MOL       0.2014
     39 H4         34.0277   40.2474   -8.4557 H           1 MOL       0.1089
     40 H5         34.2890   39.4570   -6.2457 H           1 MOL       0.0499
     41 H6         33.3776   40.9289   -6.1108 H           1 MOL       0.0499
     42 H7         34.5968   43.0176   -5.2260 H           1 MOL       0.0557
     43 H8         36.4102   39.2078   -5.1365 H           1 MOL       0.0557
     44 H9         36.2481   43.8328   -3.6699 H           1 MOL       0.0599
     45 H10        38.0206   40.0220   -3.5368 H           1 MOL       0.0599
     46 H11        37.9558   42.3354   -2.8071 H           1 MOL       0.0559
     47 H12        32.7862   43.7581   -7.6444 H           1 MOL       0.0496
     48 H13        32.2800   42.1087   -7.9068 H           1 MOL       0.0496
     49 H14        31.1545   43.5743   -9.4051 H           1 MOL       0.0576
     50 H15        33.8128   44.7853   -9.9690 H           1 MOL       0.0454
     51 H16        32.2469   45.5145   -9.7482 H           1 MOL       0.0454
     52 H17        30.5135   45.0749  -11.7219 H           1 MOL       0.0557
     53 H18        34.7085   44.7989  -12.1550 H           1 MOL       0.0557
     54 H19        30.2941   45.2947  -14.1177 H           1 MOL       0.0599
     55 H20        34.4709   45.0095  -14.5430 H           1 MOL       0.0599
     56 H21        32.2648   45.2378  -15.5363 H           1 MOL       0.0559
     57 H22        30.1747   41.9503  -10.4056 H           1 MOL       0.1876
     58 H23        29.6255   40.3694  -11.7790 H           1 MOL       0.0749
     59 H24        31.5571   40.6056  -13.9310 H           1 MOL       0.0467
     60 H25        31.3113   42.2067  -13.3322 H           1 MOL       0.0467
     61 H26        28.7517   42.8581  -12.8691 H           1 MOL       0.0557
     62 H27        30.0100   39.8748  -15.5870 H           1 MOL       0.0557
     63 H28        26.6681   43.0550  -14.0709 H           1 MOL       0.0599
     64 H29        27.9224   40.0893  -16.7721 H           1 MOL       0.0599
     65 H30        26.2452   41.6757  -16.0234 H           1 MOL       0.0559
@<TRIPOS>BOND
     1    24    25   1
     2    25    28   1
     3    25    26   1
     4    26    27  ar
     5    26    35  ar
     6    28    29   1
     7    29    30  ar
     8    29    31  ar
     9    31    33  ar
    10    33    34  ar
    11    32    34  ar
    12    30    32  ar
    13     2     1   1
    14     3     2   1
    15     2     6   1
    16     3     4  ar
    17     3     5  ar
    18    13     3   1
    19     6     7   1
    20     7     8  ar
    21     7     9  ar
    22     8    10  ar
    23     9    11  ar
    24    10    12  ar
    25    11    12  ar
    26    14    13   1
    27    14    15   1
    28    22    14   1
    29    15    16   1
    30    16    17  ar
    31    16    18  ar
    32    17    19  ar
    33    18    20  ar
    34    19    21  ar
    35    20    21  ar
    36    22    23   2
    37    22    24  am
    38     1    36   1
    39     1    37   1
    40     1    38   1
    41     2    39   1
    42     6    40   1
    43     6    41   1
    44     8    42   1
    45     9    43   1
    46    10    44   1
    47    11    45   1
    48    12    46   1
    49    13    47   1
    50    13    48   1
    51    14    49   1
    52    15    50   1
    53    15    51   1
    54    17    52   1
    55    18    53   1
    56    19    54   1
    57    20    55   1
    58    21    56   1
    59    24    57   1
    60    25    58   1
    61    28    59   1
    62    28    60   1
    63    30    61   1
    64    31    62   1
    65    32    63   1
    66    33    64   1
    67    34    65   1
@<TRIPOS>SUBSTRUCTURE
     1  MOL      2

