@<TRIPOS>MOLECULE
1os0_ligand_088
    65    67
SMALL
GAST_HUCK
****
This file was generated by PARSER (from files_GN.cpp)

@<TRIPOS>ATOM
      1 N          32.7920   46.6424  -12.2015 N.4         1 MOL       0.2351
      2 CA         32.8309   45.1979  -12.5308 C.3         1 MOL       0.0466
      3 P          33.3714   44.3348  -11.1988 P.3         1 MOL       0.0403
      4 O1P        34.8020   44.4983  -11.0657 O.co2       1 MOL      -0.6153
      5 O2P        32.8342   44.8805   -9.9763 O.co2       1 MOL      -0.6153
      6 CB         33.6962   44.9726  -13.8084 C.3         1 MOL       0.0407
      7 CG         33.1674   45.3839  -15.1451 C.ar        1 MOL      -0.0360
      8 CD1        34.0670   45.3871  -16.2432 C.ar        1 MOL      -0.0601
      9 CD2        31.8138   45.7228  -15.3920 C.ar        1 MOL      -0.0601
     10 CE1        33.6338   45.7366  -17.5330 C.ar        1 MOL      -0.0686
     11 CE2        31.3794   46.0740  -16.6899 C.ar        1 MOL      -0.0686
     12 CZ         32.2974   46.0870  -17.7575 C.ar        1 MOL      -0.0687
     13 CM         33.0000   42.7045  -11.2677 C.3         1 MOL       0.0402
     14 CA         31.6871   42.2659  -10.4989 C.3         1 MOL       0.0742
     15 CB         30.7639   41.3042  -11.3236 C.3         1 MOL       0.0021
     16 CG         30.2302   41.8528  -12.6036 C.ar        1 MOL      -0.0405
     17 CD1        30.9316   41.6697  -13.8253 C.ar        1 MOL      -0.0602
     18 CD2        28.9642   42.4907  -12.6448 C.ar        1 MOL      -0.0602
     19 CE1        30.3706   42.0991  -15.0444 C.ar        1 MOL      -0.0686
     20 CE2        28.3985   42.9006  -13.8650 C.ar        1 MOL      -0.0686
     21 CZ         29.1067   42.7115  -15.0696 C.ar        1 MOL      -0.0687
     22 C          32.0377   41.6516   -9.2097 C.2         1 MOL       0.1844
     23 O          31.7873   42.2518   -8.1681 O.2         1 MOL      -0.3964
     24 N          32.6628   40.4768   -9.1899 N.am        1 MOL      -0.2692
     25 CA         33.1461   39.7459   -8.0543 C.3         1 MOL       0.1038
     26 C          34.5965   40.0069   -7.9408 C.2         1 MOL       0.0621
     27 O          35.4821   39.3413   -8.7179 O.co2       1 MOL      -0.5664
     28 CB         32.8678   38.2172   -8.2168 C.3         1 MOL       0.0159
     29 CG         31.4320   37.8230   -8.1660 C.ar        1 MOL      -0.0392
     30 CD1        31.0007   36.7143   -7.3911 C.ar        1 MOL      -0.0602
     31 CD2        30.4669   38.5010   -8.9553 C.ar        1 MOL      -0.0602
     32 CE1        29.6524   36.3030   -7.4113 C.ar        1 MOL      -0.0686
     33 CE2        29.1187   38.1027   -8.9575 C.ar        1 MOL      -0.0686
     34 CZ         28.7044   37.0005   -8.1857 C.ar        1 MOL      -0.0687
     35 OXT        35.0655   40.9710   -7.1062 O.co2       1 MOL      -0.5664
     36 H1         32.5669   47.1905  -13.0354 H           1 MOL       0.2014
     37 H2         33.6978   46.9430  -11.8226 H           1 MOL       0.2014
     38 H3         32.0715   46.8098  -11.4972 H           1 MOL       0.2014
     39 H4         31.8052   44.8767  -12.7208 H           1 MOL       0.1089
     40 H5         33.9308   43.9065  -13.9084 H           1 MOL       0.0499
     41 H6         34.6490   45.4943  -13.6608 H           1 MOL       0.0499
     42 H7         35.0548   45.1386  -16.1045 H           1 MOL       0.0557
     43 H8         31.1228   45.7139  -14.6416 H           1 MOL       0.0557
     44 H9         34.3027   45.7459  -18.3109 H           1 MOL       0.0599
     45 H10        30.4027   46.3215  -16.8477 H           1 MOL       0.0599
     46 H11        31.9803   46.3479  -18.6954 H           1 MOL       0.0559
     47 H12        33.8730   42.1693  -10.8700 H           1 MOL       0.0496
     48 H13        32.9246   42.4222  -12.3300 H           1 MOL       0.0496
     49 H14        31.0557   43.1402  -10.2903 H           1 MOL       0.0576
     50 H15        29.8984   41.0374  -10.7106 H           1 MOL       0.0454
     51 H16        31.2896   40.3669  -11.5219 H           1 MOL       0.0454
     52 H17        31.8505   41.2134  -13.8276 H           1 MOL       0.0557
     53 H18        28.4276   42.6387  -11.7807 H           1 MOL       0.0557
     54 H19        30.8863   41.9605  -15.9187 H           1 MOL       0.0599
     55 H20        27.4732   43.3366  -13.8815 H           1 MOL       0.0599
     56 H21        28.6951   43.0150  -15.9576 H           1 MOL       0.0559
     57 H22        32.8963   40.0989  -10.0555 H           1 MOL       0.1876
     58 H23        32.6653   40.0830   -7.1307 H           1 MOL       0.0749
     59 H24        33.4240   37.6833   -7.4366 H           1 MOL       0.0467
     60 H25        33.2764   37.8778   -9.1708 H           1 MOL       0.0467
     61 H26        31.6786   36.1848   -6.8273 H           1 MOL       0.0557
     62 H27        30.7626   39.2835   -9.5550 H           1 MOL       0.0557
     63 H28        29.3555   35.4905   -6.8717 H           1 MOL       0.0599
     64 H29        28.4331   38.6070   -9.5314 H           1 MOL       0.0599
     65 H30        27.7252   36.6995   -8.1960 H           1 MOL       0.0559
@<TRIPOS>BOND
     1    24    25   1
     2    25    28   1
     3    25    26   1
     4    26    27  ar
     5    26    35  ar
     6    28    29   1
     7    29    30  ar
     8    29    31  ar
     9    31    33  ar
    10    33    34  ar
    11    32    34  ar
    12    30    32  ar
    13     2     1   1
    14     3     2   1
    15     2     6   1
    16     3     4  ar
    17     3     5  ar
    18    13     3   1
    19     6     7   1
    20     7     8  ar
    21     7     9  ar
    22     8    10  ar
    23     9    11  ar
    24    10    12  ar
    25    11    12  ar
    26    14    13   1
    27    14    15   1
    28    22    14   1
    29    15    16   1
    30    16    17  ar
    31    16    18  ar
    32    17    19  ar
    33    18    20  ar
    34    19    21  ar
    35    20    21  ar
    36    22    23   2
    37    22    24  am
    38     1    36   1
    39     1    37   1
    40     1    38   1
    41     2    39   1
    42     6    40   1
    43     6    41   1
    44     8    42   1
    45     9    43   1
    46    10    44   1
    47    11    45   1
    48    12    46   1
    49    13    47   1
    50    13    48   1
    51    14    49   1
    52    15    50   1
    53    15    51   1
    54    17    52   1
    55    18    53   1
    56    19    54   1
    57    20    55   1
    58    21    56   1
    59    24    57   1
    60    25    58   1
    61    28    59   1
    62    28    60   1
    63    30    61   1
    64    31    62   1
    65    32    63   1
    66    33    64   1
    67    34    65   1
@<TRIPOS>SUBSTRUCTURE
     1  MOL      2

