@<TRIPOS>MOLECULE
1os0_ligand_002
    65    67
SMALL
GAST_HUCK
****
This file was generated by PARSER (from files_GN.cpp)

@<TRIPOS>ATOM
      1 N          34.7401   43.1434   -1.6984 N.4         1 MOL       0.2351
      2 CA         36.0902   43.4582   -2.1989 C.3         1 MOL       0.0466
      3 P          36.9395   42.0429   -2.4949 P.3         1 MOL       0.0403
      4 O1P        38.2893   42.3676   -2.8951 O.co2       1 MOL      -0.6153
      5 O2P        37.1119   41.3513   -1.2400 O.co2       1 MOL      -0.6153
      6 CB         36.8121   44.4954   -1.2684 C.3         1 MOL       0.0407
      7 CG         37.5850   43.9383   -0.1107 C.ar        1 MOL      -0.0360
      8 CD1        38.9980   44.0368   -0.0693 C.ar        1 MOL      -0.0601
      9 CD2        36.9318   43.2289    0.9254 C.ar        1 MOL      -0.0601
     10 CE1        39.7377   43.4123    0.9519 C.ar        1 MOL      -0.0686
     11 CE2        37.6690   42.6041    1.9494 C.ar        1 MOL      -0.0686
     12 CZ         39.0721   42.6810    1.9502 C.ar        1 MOL      -0.0687
     13 CM         36.2718   40.9536   -3.5653 C.3         1 MOL       0.0402
     14 CA         36.6401   41.1220   -5.0809 C.3         1 MOL       0.0742
     15 CB         36.8589   39.7250   -5.7675 C.3         1 MOL       0.0021
     16 CG         38.1815   39.0222   -5.6667 C.ar        1 MOL      -0.0405
     17 CD1        38.3664   37.8389   -6.4335 C.ar        1 MOL      -0.0602
     18 CD2        39.2831   39.4907   -4.9075 C.ar        1 MOL      -0.0602
     19 CE1        39.6166   37.1803   -6.4711 C.ar        1 MOL      -0.0686
     20 CE2        40.5307   38.8312   -4.9343 C.ar        1 MOL      -0.0686
     21 CZ         40.6988   37.6791   -5.7233 C.ar        1 MOL      -0.0687
     22 C          35.6623   41.9487   -5.8039 C.2         1 MOL       0.1844
     23 O          36.0300   43.0317   -6.2501 O.2         1 MOL      -0.3964
     24 N          34.4761   41.4387   -6.1387 N.am        1 MOL      -0.2692
     25 CA         33.5327   41.7925   -7.1831 C.3         1 MOL       0.1038
     26 C          33.4818   40.6132   -8.0714 C.2         1 MOL       0.0621
     27 O          34.3407   40.4688   -9.1131 O.co2       1 MOL      -0.5664
     28 CB         33.7420   43.1135   -7.9760 C.3         1 MOL       0.0159
     29 CG         33.3134   43.1458   -9.4175 C.ar        1 MOL      -0.0392
     30 CD1        34.2115   43.5911  -10.4251 C.ar        1 MOL      -0.0602
     31 CD2        32.0117   42.7601   -9.8127 C.ar        1 MOL      -0.0602
     32 CE1        33.8350   43.6040  -11.7802 C.ar        1 MOL      -0.0686
     33 CE2        31.6359   42.7791  -11.1690 C.ar        1 MOL      -0.0686
     34 CZ         32.5498   43.1892  -12.1497 C.ar        1 MOL      -0.0687
     35 OXT        32.6049   39.5942   -7.8208 O.co2       1 MOL      -0.5664
     36 H1         34.2373   44.0123   -1.5023 H           1 MOL       0.2014
     37 H2         34.7964   42.5870   -0.8398 H           1 MOL       0.2014
     38 H3         34.2212   42.6174   -2.4059 H           1 MOL       0.2014
     39 H4         35.9432   43.9485   -3.1624 H           1 MOL       0.1089
     40 H5         36.0765   45.2041   -0.8762 H           1 MOL       0.0499
     41 H6         37.4814   45.0864   -1.9031 H           1 MOL       0.0499
     42 H7         39.5035   44.5288   -0.8093 H           1 MOL       0.0557
     43 H8         35.9158   43.1463    0.9334 H           1 MOL       0.0557
     44 H9         40.7582   43.4672    0.9535 H           1 MOL       0.0599
     45 H10        37.1859   42.0756    2.6794 H           1 MOL       0.0599
     46 H11        39.6114   42.2109    2.6846 H           1 MOL       0.0559
     47 H12        35.1896   40.9659   -3.4344 H           1 MOL       0.0496
     48 H13        36.6040   39.9697   -3.2308 H           1 MOL       0.0496
     49 H14        37.6057   41.6321   -5.1627 H           1 MOL       0.0576
     50 H15        36.6713   39.8448   -6.8375 H           1 MOL       0.0454
     51 H16        36.0982   39.0294   -5.3956 H           1 MOL       0.0454
     52 H17        37.6048   37.4602   -6.9986 H           1 MOL       0.0557
     53 H18        39.2060   40.3288   -4.3387 H           1 MOL       0.0557
     54 H19        39.7417   36.3464   -7.0490 H           1 MOL       0.0599
     55 H20        41.3177   39.1969   -4.3920 H           1 MOL       0.0599
     56 H21        41.6132   37.2068   -5.7587 H           1 MOL       0.0559
     57 H22        34.2482   40.6227   -5.6645 H           1 MOL       0.1876
     58 H23        32.5745   41.8692   -6.6771 H           1 MOL       0.0749
     59 H24        34.8171   43.3654   -7.9343 H           1 MOL       0.0467
     60 H25        33.2100   43.9147   -7.4541 H           1 MOL       0.0467
     61 H26        35.1526   43.9069  -10.1695 H           1 MOL       0.0557
     62 H27        31.3385   42.4497   -9.1110 H           1 MOL       0.0557
     63 H28        34.5042   43.9117  -12.4950 H           1 MOL       0.0599
     64 H29        30.6980   42.4616  -11.4527 H           1 MOL       0.0599
     65 H30        32.2747   43.1922  -13.1390 H           1 MOL       0.0559
@<TRIPOS>BOND
     1    24    25   1
     2    25    28   1
     3    25    26   1
     4    26    27  ar
     5    26    35  ar
     6    28    29   1
     7    29    30  ar
     8    29    31  ar
     9    31    33  ar
    10    33    34  ar
    11    32    34  ar
    12    30    32  ar
    13     2     1   1
    14     3     2   1
    15     2     6   1
    16     3     4  ar
    17     3     5  ar
    18    13     3   1
    19     6     7   1
    20     7     8  ar
    21     7     9  ar
    22     8    10  ar
    23     9    11  ar
    24    10    12  ar
    25    11    12  ar
    26    14    13   1
    27    14    15   1
    28    22    14   1
    29    15    16   1
    30    16    17  ar
    31    16    18  ar
    32    17    19  ar
    33    18    20  ar
    34    19    21  ar
    35    20    21  ar
    36    22    23   2
    37    22    24  am
    38     1    36   1
    39     1    37   1
    40     1    38   1
    41     2    39   1
    42     6    40   1
    43     6    41   1
    44     8    42   1
    45     9    43   1
    46    10    44   1
    47    11    45   1
    48    12    46   1
    49    13    47   1
    50    13    48   1
    51    14    49   1
    52    15    50   1
    53    15    51   1
    54    17    52   1
    55    18    53   1
    56    19    54   1
    57    20    55   1
    58    21    56   1
    59    24    57   1
    60    25    58   1
    61    28    59   1
    62    28    60   1
    63    30    61   1
    64    31    62   1
    65    32    63   1
    66    33    64   1
    67    34    65   1
@<TRIPOS>SUBSTRUCTURE
     1  MOL      2

