@<TRIPOS>MOLECULE
1os0_ligand_065
    65    67
SMALL
GAST_HUCK
****
This file was generated by PARSER (from files_GN.cpp)

@<TRIPOS>ATOM
      1 N          46.0940   39.5423   -2.3790 N.4         1 MOL       0.2351
      2 CA         44.8690   39.5318   -3.1988 C.3         1 MOL       0.0466
      3 P          43.8287   38.2895   -2.7460 P.3         1 MOL       0.0403
      4 O1P        44.2604   37.0415   -3.3359 O.co2       1 MOL      -0.6153
      5 O2P        44.0354   38.0408   -1.3322 O.co2       1 MOL      -0.6153
      6 CB         45.2317   39.6129   -4.7228 C.3         1 MOL       0.0407
      7 CG         45.5026   38.3282   -5.4357 C.ar        1 MOL      -0.0360
      8 CD1        44.6232   37.8610   -6.4441 C.ar        1 MOL      -0.0601
      9 CD2        46.6303   37.5347   -5.1130 C.ar        1 MOL      -0.0601
     10 CE1        44.8128   36.6014   -7.0432 C.ar        1 MOL      -0.0686
     11 CE2        46.8146   36.2693   -5.7030 C.ar        1 MOL      -0.0686
     12 CZ         45.8992   35.7974   -6.6602 C.ar        1 MOL      -0.0687
     13 CM         42.1946   38.5561   -3.0200 C.3         1 MOL       0.0402
     14 CA         41.3122   37.4997   -3.7834 C.3         1 MOL       0.0742
     15 CB         41.1859   36.0593   -3.1753 C.3         1 MOL       0.0021
     16 CG         40.7981   35.9834   -1.7393 C.ar        1 MOL      -0.0405
     17 CD1        39.4485   35.7942   -1.3519 C.ar        1 MOL      -0.0602
     18 CD2        41.7807   36.0870   -0.7263 C.ar        1 MOL      -0.0602
     19 CE1        39.0831   35.7807    0.0079 C.ar        1 MOL      -0.0686
     20 CE2        41.4151   36.0859    0.6325 C.ar        1 MOL      -0.0686
     21 CZ         40.0654   35.9474    0.9999 C.ar        1 MOL      -0.0687
     22 C          39.9771   38.0582   -4.0497 C.2         1 MOL       0.1844
     23 O          39.6083   38.1853   -5.2146 O.2         1 MOL      -0.3964
     24 N          39.2105   38.5135   -3.0589 N.am        1 MOL      -0.2692
     25 CA         37.9675   39.2404   -3.1564 C.3         1 MOL       0.1038
     26 C          38.1442   40.4383   -4.0069 C.2         1 MOL       0.0621
     27 O          38.9667   41.4436   -3.6345 O.co2       1 MOL      -0.5664
     28 CB         37.4767   39.6207   -1.7190 C.3         1 MOL       0.0159
     29 CG         36.3712   40.6175   -1.5504 C.ar        1 MOL      -0.0392
     30 CD1        36.1581   41.1896   -0.2704 C.ar        1 MOL      -0.0602
     31 CD2        35.5452   41.0477   -2.6155 C.ar        1 MOL      -0.0602
     32 CE1        35.2090   42.2092   -0.0747 C.ar        1 MOL      -0.0686
     33 CE2        34.5686   42.0464   -2.4149 C.ar        1 MOL      -0.0686
     34 CZ         34.4217   42.6483   -1.1531 C.ar        1 MOL      -0.0687
     35 OXT        37.5763   40.5059   -5.2280 O.co2       1 MOL      -0.5664
     36 H1         46.7173   40.2851   -2.7003 H           1 MOL       0.2014
     37 H2         46.5699   38.6431   -2.4592 H           1 MOL       0.2014
     38 H3         45.8585   39.7221   -1.3976 H           1 MOL       0.2014
     39 H4         44.3684   40.4667   -2.9426 H           1 MOL       0.1089
     40 H5         46.1115   40.2529   -4.8411 H           1 MOL       0.0499
     41 H6         44.4103   40.1400   -5.2169 H           1 MOL       0.0499
     42 H7         43.8248   38.4259   -6.7395 H           1 MOL       0.0557
     43 H8         47.3156   37.8590   -4.4289 H           1 MOL       0.0557
     44 H9         44.1587   36.2718   -7.7578 H           1 MOL       0.0599
     45 H10        47.6139   35.6907   -5.4347 H           1 MOL       0.0599
     46 H11        46.0249   34.8736   -7.0774 H           1 MOL       0.0559
     47 H12        42.1410   39.4846   -3.5975 H           1 MOL       0.0496
     48 H13        41.7312   38.7719   -2.0570 H           1 MOL       0.0496
     49 H14        41.8019   37.3522   -4.7523 H           1 MOL       0.0576
     50 H15        42.1301   35.5292   -3.3071 H           1 MOL       0.0454
     51 H16        40.4641   35.4886   -3.7714 H           1 MOL       0.0454
     52 H17        38.7174   35.6815   -2.0605 H           1 MOL       0.0557
     53 H18        42.7717   36.1724   -0.9721 H           1 MOL       0.0557
     54 H19        38.1013   35.6592    0.2727 H           1 MOL       0.0599
     55 H20        42.1324   36.1913    1.3525 H           1 MOL       0.0599
     56 H21        39.8028   35.9636    1.9858 H           1 MOL       0.0559
     57 H22        39.5598   38.3839   -2.1606 H           1 MOL       0.1876
     58 H23        37.2183   38.5826   -3.6120 H           1 MOL       0.0749
     59 H24        38.3490   40.0078   -1.1827 H           1 MOL       0.0467
     60 H25        37.1779   38.7033   -1.2030 H           1 MOL       0.0467
     61 H26        36.7240   40.8913    0.5274 H           1 MOL       0.0557
     62 H27        35.6640   40.6609   -3.5565 H           1 MOL       0.0557
     63 H28        35.1054   42.6385    0.8484 H           1 MOL       0.0599
     64 H29        33.9765   42.3482   -3.1878 H           1 MOL       0.0599
     65 H30        33.7500   43.4072   -1.0247 H           1 MOL       0.0559
@<TRIPOS>BOND
     1    24    25   1
     2    25    28   1
     3    25    26   1
     4    26    27  ar
     5    26    35  ar
     6    28    29   1
     7    29    30  ar
     8    29    31  ar
     9    31    33  ar
    10    33    34  ar
    11    32    34  ar
    12    30    32  ar
    13     2     1   1
    14     3     2   1
    15     2     6   1
    16     3     4  ar
    17     3     5  ar
    18    13     3   1
    19     6     7   1
    20     7     8  ar
    21     7     9  ar
    22     8    10  ar
    23     9    11  ar
    24    10    12  ar
    25    11    12  ar
    26    14    13   1
    27    14    15   1
    28    22    14   1
    29    15    16   1
    30    16    17  ar
    31    16    18  ar
    32    17    19  ar
    33    18    20  ar
    34    19    21  ar
    35    20    21  ar
    36    22    23   2
    37    22    24  am
    38     1    36   1
    39     1    37   1
    40     1    38   1
    41     2    39   1
    42     6    40   1
    43     6    41   1
    44     8    42   1
    45     9    43   1
    46    10    44   1
    47    11    45   1
    48    12    46   1
    49    13    47   1
    50    13    48   1
    51    14    49   1
    52    15    50   1
    53    15    51   1
    54    17    52   1
    55    18    53   1
    56    19    54   1
    57    20    55   1
    58    21    56   1
    59    24    57   1
    60    25    58   1
    61    28    59   1
    62    28    60   1
    63    30    61   1
    64    31    62   1
    65    32    63   1
    66    33    64   1
    67    34    65   1
@<TRIPOS>SUBSTRUCTURE
     1  MOL      2

