@<TRIPOS>MOLECULE
1os0_ligand_037
    65    67
SMALL
GAST_HUCK
****
This file was generated by PARSER (from files_GN.cpp)

@<TRIPOS>ATOM
      1 N          36.1099   38.3536   -1.2361 N.4         1 MOL       0.2351
      2 CA         37.3148   38.8958   -0.6150 C.3         1 MOL       0.0466
      3 P          37.4487   40.5562   -0.8490 P.3         1 MOL       0.0403
      4 O1P        38.0348   41.1050    0.3531 O.co2       1 MOL      -0.6153
      5 O2P        38.4769   40.8568   -1.8104 O.co2       1 MOL      -0.6153
      6 CB         38.5716   38.0497   -1.0199 C.3         1 MOL       0.0407
      7 CG         38.9600   38.0945   -2.4656 C.ar        1 MOL      -0.0360
      8 CD1        40.0523   38.8825   -2.9113 C.ar        1 MOL      -0.0601
      9 CD2        38.2239   37.3729   -3.4368 C.ar        1 MOL      -0.0601
     10 CE1        40.3411   39.0097   -4.2823 C.ar        1 MOL      -0.0686
     11 CE2        38.5045   37.5037   -4.8102 C.ar        1 MOL      -0.0686
     12 CZ         39.5549   38.3386   -5.2330 C.ar        1 MOL      -0.0687
     13 CM         36.0619   41.4606   -1.1799 C.3         1 MOL       0.0402
     14 CA         35.9517   42.2662   -2.5216 C.3         1 MOL       0.0742
     15 CB         37.0865   43.3037   -2.8225 C.3         1 MOL       0.0021
     16 CG         37.5918   44.0305   -1.6296 C.ar        1 MOL      -0.0405
     17 CD1        38.6975   43.5506   -0.8787 C.ar        1 MOL      -0.0602
     18 CD2        36.9608   45.2262   -1.2196 C.ar        1 MOL      -0.0602
     19 CE1        39.1444   44.2488    0.2602 C.ar        1 MOL      -0.0686
     20 CE2        37.4477   45.9431   -0.1143 C.ar        1 MOL      -0.0686
     21 CZ         38.5320   45.4562    0.6338 C.ar        1 MOL      -0.0687
     22 C          35.7612   41.4359   -3.7055 C.2         1 MOL       0.1844
     23 O          36.5146   40.4885   -3.8988 O.2         1 MOL      -0.3964
     24 N          34.9761   41.8685   -4.6875 N.am        1 MOL      -0.2692
     25 CA         34.9702   41.3627   -6.0349 C.3         1 MOL       0.1038
     26 C          34.3982   42.4150   -6.9091 C.2         1 MOL       0.0621
     27 O          35.1266   43.5315   -7.1447 O.co2       1 MOL      -0.5664
     28 CB         34.2629   39.9732   -6.1390 C.3         1 MOL       0.0159
     29 CG         34.8332   38.9491   -7.0669 C.ar        1 MOL      -0.0392
     30 CD1        35.8540   39.2057   -8.0200 C.ar        1 MOL      -0.0602
     31 CD2        34.3732   37.6150   -6.9357 C.ar        1 MOL      -0.0602
     32 CE1        36.4199   38.1671   -8.7823 C.ar        1 MOL      -0.0686
     33 CE2        34.9385   36.5716   -7.6981 C.ar        1 MOL      -0.0686
     34 CZ         35.9778   36.8464   -8.6047 C.ar        1 MOL      -0.0687
     35 OXT        33.1369   42.3613   -7.3992 O.co2       1 MOL      -0.5664
     36 H1         36.0328   37.3553   -1.0245 H           1 MOL       0.2014
     37 H2         36.1582   38.4954   -2.2460 H           1 MOL       0.2014
     38 H3         35.2866   38.8242   -0.8609 H           1 MOL       0.2014
     39 H4         37.1556   38.7494    0.4514 H           1 MOL       0.1089
     40 H5         38.3813   37.0034   -0.7610 H           1 MOL       0.0499
     41 H6         39.4137   38.3623   -0.3928 H           1 MOL       0.0499
     42 H7         40.6277   39.3930   -2.2400 H           1 MOL       0.0557
     43 H8         37.4670   36.7492   -3.1516 H           1 MOL       0.0557
     44 H9         41.1165   39.6089   -4.5912 H           1 MOL       0.0599
     45 H10        37.9420   37.0018   -5.5011 H           1 MOL       0.0599
     46 H11        39.7549   38.4419   -6.2322 H           1 MOL       0.0559
     47 H12        35.9243   42.1738   -0.3637 H           1 MOL       0.0496
     48 H13        35.1933   40.8040   -1.1141 H           1 MOL       0.0496
     49 H14        35.0320   42.8625   -2.4036 H           1 MOL       0.0576
     50 H15        36.7082   44.0516   -3.5307 H           1 MOL       0.0454
     51 H16        37.9176   42.8077   -3.3368 H           1 MOL       0.0454
     52 H17        39.1794   42.6937   -1.1506 H           1 MOL       0.0557
     53 H18        36.1578   45.5962   -1.7416 H           1 MOL       0.0557
     54 H19        39.9253   43.8809    0.8071 H           1 MOL       0.0599
     55 H20        37.0081   46.8285    0.1344 H           1 MOL       0.0599
     56 H21        38.8695   45.9740    1.4477 H           1 MOL       0.0559
     57 H22        34.4671   42.6849   -4.5205 H           1 MOL       0.1876
     58 H23        36.0159   41.2435   -6.3454 H           1 MOL       0.0749
     59 H24        33.2103   40.1126   -6.3921 H           1 MOL       0.0467
     60 H25        34.2811   39.5241   -5.1431 H           1 MOL       0.0467
     61 H26        36.2006   40.1512   -8.1770 H           1 MOL       0.0557
     62 H27        33.6319   37.3780   -6.2748 H           1 MOL       0.0557
     63 H28        37.1653   38.3731   -9.4497 H           1 MOL       0.0599
     64 H29        34.6117   35.6041   -7.5760 H           1 MOL       0.0599
     65 H30        36.4028   36.0856   -9.1481 H           1 MOL       0.0559
@<TRIPOS>BOND
     1    24    25   1
     2    25    28   1
     3    25    26   1
     4    26    27  ar
     5    26    35  ar
     6    28    29   1
     7    29    30  ar
     8    29    31  ar
     9    31    33  ar
    10    33    34  ar
    11    32    34  ar
    12    30    32  ar
    13     2     1   1
    14     3     2   1
    15     2     6   1
    16     3     4  ar
    17     3     5  ar
    18    13     3   1
    19     6     7   1
    20     7     8  ar
    21     7     9  ar
    22     8    10  ar
    23     9    11  ar
    24    10    12  ar
    25    11    12  ar
    26    14    13   1
    27    14    15   1
    28    22    14   1
    29    15    16   1
    30    16    17  ar
    31    16    18  ar
    32    17    19  ar
    33    18    20  ar
    34    19    21  ar
    35    20    21  ar
    36    22    23   2
    37    22    24  am
    38     1    36   1
    39     1    37   1
    40     1    38   1
    41     2    39   1
    42     6    40   1
    43     6    41   1
    44     8    42   1
    45     9    43   1
    46    10    44   1
    47    11    45   1
    48    12    46   1
    49    13    47   1
    50    13    48   1
    51    14    49   1
    52    15    50   1
    53    15    51   1
    54    17    52   1
    55    18    53   1
    56    19    54   1
    57    20    55   1
    58    21    56   1
    59    24    57   1
    60    25    58   1
    61    28    59   1
    62    28    60   1
    63    30    61   1
    64    31    62   1
    65    32    63   1
    66    33    64   1
    67    34    65   1
@<TRIPOS>SUBSTRUCTURE
     1  MOL      2

