@<TRIPOS>MOLECULE
1os0_ligand_039
    65    67
SMALL
GAST_HUCK
****
This file was generated by PARSER (from files_GN.cpp)

@<TRIPOS>ATOM
      1 N          36.3213   40.3835   -8.0117 N.4         1 MOL       0.2351
      2 CA         34.9511   40.5110   -7.4787 C.3         1 MOL       0.0466
      3 P          34.3801   42.0685   -7.7142 P.3         1 MOL       0.0403
      4 O1P        33.2663   42.3592   -6.8433 O.co2       1 MOL      -0.6153
      5 O2P        35.4032   43.0165   -7.3460 O.co2       1 MOL      -0.6153
      6 CB         34.8588   39.9612   -6.0190 C.3         1 MOL       0.0407
      7 CG         35.8391   40.5219   -5.0451 C.ar        1 MOL      -0.0360
      8 CD1        35.4851   41.5545   -4.1445 C.ar        1 MOL      -0.0601
      9 CD2        37.1511   39.9924   -4.9805 C.ar        1 MOL      -0.0601
     10 CE1        36.4169   42.0455   -3.2094 C.ar        1 MOL      -0.0686
     11 CE2        38.0825   40.4826   -4.0467 C.ar        1 MOL      -0.0686
     12 CZ         37.7160   41.5077   -3.1600 C.ar        1 MOL      -0.0687
     13 CM         33.8748   42.3695   -9.2839 C.3         1 MOL       0.0402
     14 CA         32.3812   42.0896   -9.7219 C.3         1 MOL       0.0742
     15 CB         32.0831   42.6284  -11.1695 C.3         1 MOL       0.0021
     16 CG         32.4465   44.0472  -11.4579 C.ar        1 MOL      -0.0405
     17 CD1        33.7682   44.3799  -11.8445 C.ar        1 MOL      -0.0602
     18 CD2        31.4824   45.0854  -11.4016 C.ar        1 MOL      -0.0602
     19 CE1        34.1310   45.7131  -12.1033 C.ar        1 MOL      -0.0686
     20 CE2        31.8350   46.4169  -11.7003 C.ar        1 MOL      -0.0686
     21 CZ         33.1643   46.7308  -12.0333 C.ar        1 MOL      -0.0687
     22 C          31.9502   40.6826   -9.5534 C.2         1 MOL       0.1844
     23 O          31.9987   40.2291   -8.4213 O.2         1 MOL      -0.3964
     24 N          31.3853   39.9335  -10.5045 N.am        1 MOL      -0.2692
     25 CA         31.0691   38.5202  -10.4947 C.3         1 MOL       0.1038
     26 C          30.2778   38.2689  -11.7249 C.2         1 MOL       0.0621
     27 O          29.0769   38.8680  -11.9011 O.co2       1 MOL      -0.5664
     28 CB         30.3301   37.9455   -9.2263 C.3         1 MOL       0.0159
     29 CG         31.2066   37.1102   -8.3489 C.ar        1 MOL      -0.0392
     30 CD1        31.5610   35.7983   -8.7476 C.ar        1 MOL      -0.0602
     31 CD2        31.7021   37.5877   -7.1130 C.ar        1 MOL      -0.0602
     32 CE1        32.4123   35.0050   -7.9528 C.ar        1 MOL      -0.0686
     33 CE2        32.5948   36.8183   -6.3455 C.ar        1 MOL      -0.0686
     34 CZ         32.9494   35.5250   -6.7612 C.ar        1 MOL      -0.0687
     35 OXT        30.7194   37.4252  -12.6864 O.co2       1 MOL      -0.5664
     36 H1         36.5788   39.3912   -8.0602 H           1 MOL       0.2014
     37 H2         36.9902   40.8683   -7.4120 H           1 MOL       0.2014
     38 H3         36.3891   40.7919   -8.9479 H           1 MOL       0.2014
     39 H4         34.3363   39.8505   -8.1005 H           1 MOL       0.1089
     40 H5         34.9927   38.8745   -6.0506 H           1 MOL       0.0499
     41 H6         33.8421   40.1067   -5.6474 H           1 MOL       0.0499
     42 H7         34.5447   41.9575   -4.1641 H           1 MOL       0.0557
     43 H8         37.4374   39.2398   -5.6136 H           1 MOL       0.0557
     44 H9         36.1486   42.7910   -2.5655 H           1 MOL       0.0599
     45 H10        39.0260   40.0885   -4.0130 H           1 MOL       0.0599
     46 H11        38.3890   41.8579   -2.4777 H           1 MOL       0.0559
     47 H12        34.5570   41.8557   -9.9637 H           1 MOL       0.0496
     48 H13        34.0419   43.4401   -9.4081 H           1 MOL       0.0496
     49 H14        31.7444   42.6778   -9.0562 H           1 MOL       0.0576
     50 H15        31.0099   42.5224  -11.3520 H           1 MOL       0.0454
     51 H16        32.5854   41.9915  -11.9021 H           1 MOL       0.0454
     52 H17        34.4805   43.6519  -11.9271 H           1 MOL       0.0557
     53 H18        30.5126   44.8753  -11.1511 H           1 MOL       0.0557
     54 H19        35.0988   45.9367  -12.3306 H           1 MOL       0.0599
     55 H20        31.1297   47.1555  -11.6580 H           1 MOL       0.0599
     56 H21        33.4265   47.7031  -12.2253 H           1 MOL       0.0559
     57 H22        31.2304   40.3773  -11.3513 H           1 MOL       0.1876
     58 H23        32.0227   37.9963  -10.6214 H           1 MOL       0.0749
     59 H24        29.4797   37.3147   -9.5192 H           1 MOL       0.0467
     60 H25        29.8916   38.7727   -8.6676 H           1 MOL       0.0467
     61 H26        31.1943   35.4056   -9.6182 H           1 MOL       0.0557
     62 H27        31.4281   38.5067   -6.7639 H           1 MOL       0.0557
     63 H28        32.6418   34.0508   -8.2407 H           1 MOL       0.0599
     64 H29        32.9777   37.1945   -5.4739 H           1 MOL       0.0599
     65 H30        33.5799   34.9569   -6.1926 H           1 MOL       0.0559
@<TRIPOS>BOND
     1    24    25   1
     2    25    28   1
     3    25    26   1
     4    26    27  ar
     5    26    35  ar
     6    28    29   1
     7    29    30  ar
     8    29    31  ar
     9    31    33  ar
    10    33    34  ar
    11    32    34  ar
    12    30    32  ar
    13     2     1   1
    14     3     2   1
    15     2     6   1
    16     3     4  ar
    17     3     5  ar
    18    13     3   1
    19     6     7   1
    20     7     8  ar
    21     7     9  ar
    22     8    10  ar
    23     9    11  ar
    24    10    12  ar
    25    11    12  ar
    26    14    13   1
    27    14    15   1
    28    22    14   1
    29    15    16   1
    30    16    17  ar
    31    16    18  ar
    32    17    19  ar
    33    18    20  ar
    34    19    21  ar
    35    20    21  ar
    36    22    23   2
    37    22    24  am
    38     1    36   1
    39     1    37   1
    40     1    38   1
    41     2    39   1
    42     6    40   1
    43     6    41   1
    44     8    42   1
    45     9    43   1
    46    10    44   1
    47    11    45   1
    48    12    46   1
    49    13    47   1
    50    13    48   1
    51    14    49   1
    52    15    50   1
    53    15    51   1
    54    17    52   1
    55    18    53   1
    56    19    54   1
    57    20    55   1
    58    21    56   1
    59    24    57   1
    60    25    58   1
    61    28    59   1
    62    28    60   1
    63    30    61   1
    64    31    62   1
    65    32    63   1
    66    33    64   1
    67    34    65   1
@<TRIPOS>SUBSTRUCTURE
     1  MOL      2

