@<TRIPOS>MOLECULE
1os0_ligand_072
    65    67
SMALL
GAST_HUCK
****
This file was generated by PARSER (from files_GN.cpp)

@<TRIPOS>ATOM
      1 N          34.4130   40.5032   -5.9346 N.4         1 MOL       0.2351
      2 CA         34.2836   41.9683   -5.8478 C.3         1 MOL       0.0466
      3 P          33.9552   42.6694   -7.3505 P.3         1 MOL       0.0403
      4 O1P        32.6664   43.3126   -7.3035 O.co2       1 MOL      -0.6153
      5 O2P        34.8751   43.7494   -7.5490 O.co2       1 MOL      -0.6153
      6 CB         35.5101   42.5815   -5.0913 C.3         1 MOL       0.0407
      7 CG         35.8266   41.9739   -3.7639 C.ar        1 MOL      -0.0360
      8 CD1        34.8270   41.8097   -2.7726 C.ar        1 MOL      -0.0601
      9 CD2        37.1488   41.5695   -3.4532 C.ar        1 MOL      -0.0601
     10 CE1        35.1260   41.2100   -1.5362 C.ar        1 MOL      -0.0686
     11 CE2        37.4551   40.9937   -2.2066 C.ar        1 MOL      -0.0686
     12 CZ         36.4406   40.8015   -1.2531 C.ar        1 MOL      -0.0687
     13 CM         34.0476   41.7069   -8.7370 C.3         1 MOL       0.0402
     14 CA         32.9011   41.8972   -9.7992 C.3         1 MOL       0.0742
     15 CB         33.3546   41.5660  -11.2720 C.3         1 MOL       0.0021
     16 CG         33.6321   42.7319  -12.1731 C.ar        1 MOL      -0.0405
     17 CD1        34.2255   43.9295  -11.6990 C.ar        1 MOL      -0.0602
     18 CD2        33.3051   42.6568  -13.5514 C.ar        1 MOL      -0.0602
     19 CE1        34.4299   45.0285  -12.5537 C.ar        1 MOL      -0.0686
     20 CE2        33.5248   43.7481  -14.4122 C.ar        1 MOL      -0.0686
     21 CZ         34.0773   44.9388  -13.9108 C.ar        1 MOL      -0.0687
     22 C          31.7084   41.1408   -9.4037 C.2         1 MOL       0.1844
     23 O          30.7976   41.7314   -8.8362 O.2         1 MOL      -0.3964
     24 N          31.5963   39.8488   -9.7067 N.am        1 MOL      -0.2692
     25 CA         30.4443   39.0158   -9.4810 C.3         1 MOL       0.1038
     26 C          30.8236   37.9561   -8.5194 C.2         1 MOL       0.0621
     27 O          31.4238   38.2968   -7.3570 O.co2       1 MOL      -0.5664
     28 CB         29.8913   38.4819  -10.8400 C.3         1 MOL       0.0159
     29 CG         29.6204   39.5411  -11.8590 C.ar        1 MOL      -0.0392
     30 CD1        28.9391   40.7312  -11.5057 C.ar        1 MOL      -0.0602
     31 CD2        30.0531   39.3851  -13.1980 C.ar        1 MOL      -0.0602
     32 CE1        28.7360   41.7529  -12.4522 C.ar        1 MOL      -0.0686
     33 CE2        29.8365   40.4006  -14.1480 C.ar        1 MOL      -0.0686
     34 CZ         29.1883   41.5890  -13.7722 C.ar        1 MOL      -0.0687
     35 OXT        30.4864   36.6589   -8.6953 O.co2       1 MOL      -0.5664
     36 H1         34.5282   40.1037   -5.0017 H           1 MOL       0.2014
     37 H2         35.2303   40.2594   -6.5003 H           1 MOL       0.2014
     38 H3         33.5721   40.1071   -6.3626 H           1 MOL       0.2014
     39 H4         33.4033   42.1598   -5.2341 H           1 MOL       0.1089
     40 H5         35.3178   43.6441   -4.9113 H           1 MOL       0.0499
     41 H6         36.3828   42.5184   -5.7444 H           1 MOL       0.0499
     42 H7         33.8651   42.1074   -2.9464 H           1 MOL       0.0557
     43 H8         37.9055   41.6995   -4.1318 H           1 MOL       0.0557
     44 H9         34.3854   41.0681   -0.8470 H           1 MOL       0.0599
     45 H10        38.4141   40.7114   -1.9963 H           1 MOL       0.0599
     46 H11        36.6586   40.3685   -0.3522 H           1 MOL       0.0559
     47 H12        34.0933   40.6580   -8.4525 H           1 MOL       0.0496
     48 H13        35.0102   41.9182   -9.2070 H           1 MOL       0.0496
     49 H14        32.6176   42.9556   -9.8065 H           1 MOL       0.0576
     50 H15        32.5837   40.9571  -11.7524 H           1 MOL       0.0454
     51 H16        34.2485   40.9372  -11.2503 H           1 MOL       0.0454
     52 H17        34.4981   44.0252  -10.7197 H           1 MOL       0.0557
     53 H18        32.9029   41.8021  -13.9433 H           1 MOL       0.0557
     54 H19        34.8402   45.8913  -12.1889 H           1 MOL       0.0599
     55 H20        33.2816   43.6767  -15.4028 H           1 MOL       0.0599
     56 H21        34.2270   45.7359  -14.5332 H           1 MOL       0.0559
     57 H22        32.3331   39.4475  -10.1948 H           1 MOL       0.1876
     58 H23        29.6398   39.5752   -8.9951 H           1 MOL       0.0749
     59 H24        28.9555   37.9479  -10.6565 H           1 MOL       0.0467
     60 H25        30.6026   37.7521  -11.2405 H           1 MOL       0.0467
     61 H26        28.6046   40.8739  -10.5495 H           1 MOL       0.0557
     62 H27        30.5371   38.5344  -13.4923 H           1 MOL       0.0557
     63 H28        28.2597   42.6158  -12.1789 H           1 MOL       0.0599
     64 H29        30.1577   40.2754  -15.1115 H           1 MOL       0.0599
     65 H30        29.0426   42.3316  -14.4602 H           1 MOL       0.0559
@<TRIPOS>BOND
     1    24    25   1
     2    25    28   1
     3    25    26   1
     4    26    27  ar
     5    26    35  ar
     6    28    29   1
     7    29    30  ar
     8    29    31  ar
     9    31    33  ar
    10    33    34  ar
    11    32    34  ar
    12    30    32  ar
    13     2     1   1
    14     3     2   1
    15     2     6   1
    16     3     4  ar
    17     3     5  ar
    18    13     3   1
    19     6     7   1
    20     7     8  ar
    21     7     9  ar
    22     8    10  ar
    23     9    11  ar
    24    10    12  ar
    25    11    12  ar
    26    14    13   1
    27    14    15   1
    28    22    14   1
    29    15    16   1
    30    16    17  ar
    31    16    18  ar
    32    17    19  ar
    33    18    20  ar
    34    19    21  ar
    35    20    21  ar
    36    22    23   2
    37    22    24  am
    38     1    36   1
    39     1    37   1
    40     1    38   1
    41     2    39   1
    42     6    40   1
    43     6    41   1
    44     8    42   1
    45     9    43   1
    46    10    44   1
    47    11    45   1
    48    12    46   1
    49    13    47   1
    50    13    48   1
    51    14    49   1
    52    15    50   1
    53    15    51   1
    54    17    52   1
    55    18    53   1
    56    19    54   1
    57    20    55   1
    58    21    56   1
    59    24    57   1
    60    25    58   1
    61    28    59   1
    62    28    60   1
    63    30    61   1
    64    31    62   1
    65    32    63   1
    66    33    64   1
    67    34    65   1
@<TRIPOS>SUBSTRUCTURE
     1  MOL      2

