@<TRIPOS>MOLECULE
1os0_ligand_071
    65    67
SMALL
GAST_HUCK
****
This file was generated by PARSER (from files_GN.cpp)

@<TRIPOS>ATOM
      1 N          46.6623   38.7302   -3.1083 N.4         1 MOL       0.2351
      2 CA         45.2910   38.9515   -3.5917 C.3         1 MOL       0.0466
      3 P          44.2534   37.8217   -2.9206 P.3         1 MOL       0.0403
      4 O1P        44.4426   36.5589   -3.5892 O.co2       1 MOL      -0.6153
      5 O2P        44.6962   37.5426   -1.5739 O.co2       1 MOL      -0.6153
      6 CB         45.2510   39.0738   -5.1526 C.3         1 MOL       0.0407
      7 CG         45.3197   37.8074   -5.9436 C.ar        1 MOL      -0.0360
      8 CD1        44.2826   37.4537   -6.8393 C.ar        1 MOL      -0.0601
      9 CD2        46.4255   36.9258   -5.8199 C.ar        1 MOL      -0.0601
     10 CE1        44.3268   36.2480   -7.5628 C.ar        1 MOL      -0.0686
     11 CE2        46.4619   35.7115   -6.5306 C.ar        1 MOL      -0.0686
     12 CZ         45.4126   35.3678   -7.3947 C.ar        1 MOL      -0.0687
     13 CM         42.6480   38.2953   -2.8324 C.3         1 MOL       0.0402
     14 CA         41.5582   37.4321   -3.5628 C.3         1 MOL       0.0742
     15 CB         41.5039   35.8810   -3.2530 C.3         1 MOL       0.0021
     16 CG         41.9105   35.3947   -1.9003 C.ar        1 MOL      -0.0405
     17 CD1        41.4957   36.0546   -0.7177 C.ar        1 MOL      -0.0602
     18 CD2        42.6813   34.2107   -1.7659 C.ar        1 MOL      -0.0602
     19 CE1        41.8499   35.5565    0.5503 C.ar        1 MOL      -0.0686
     20 CE2        43.0253   33.7052   -0.5008 C.ar        1 MOL      -0.0686
     21 CZ         42.6133   34.3811    0.6627 C.ar        1 MOL      -0.0687
     22 C          40.2509   38.0858   -3.4147 C.2         1 MOL       0.1844
     23 O          39.4247   37.6131   -2.6316 O.2         1 MOL      -0.3964
     24 N          39.9454   39.1848   -4.0970 N.am        1 MOL      -0.2692
     25 CA         38.6845   39.8784   -4.1184 C.3         1 MOL       0.1038
     26 C          38.4553   40.5768   -2.8247 C.2         1 MOL       0.0621
     27 O          37.5665   40.1165   -1.9139 O.co2       1 MOL      -0.5664
     28 CB         37.4937   38.9678   -4.5573 C.3         1 MOL       0.0159
     29 CG         37.5757   38.4588   -5.9618 C.ar        1 MOL      -0.0392
     30 CD1        38.6605   37.6459   -6.3750 C.ar        1 MOL      -0.0602
     31 CD2        36.5438   38.7362   -6.8942 C.ar        1 MOL      -0.0602
     32 CE1        38.7203   37.1395   -7.6919 C.ar        1 MOL      -0.0686
     33 CE2        36.5967   38.2148   -8.2046 C.ar        1 MOL      -0.0686
     34 CZ         37.6861   37.4199   -8.6049 C.ar        1 MOL      -0.0687
     35 OXT        38.9369   41.8277   -2.6468 O.co2       1 MOL      -0.5664
     36 H1         47.2703   39.4484   -3.5048 H           1 MOL       0.2014
     37 H2         46.9914   37.8013   -3.3789 H           1 MOL       0.2014
     38 H3         46.6846   38.8116   -2.0906 H           1 MOL       0.2014
     39 H4         45.0010   39.9268   -3.1913 H           1 MOL       0.1089
     40 H5         46.0845   39.7080   -5.4722 H           1 MOL       0.0499
     41 H6         44.3389   39.6211   -5.4152 H           1 MOL       0.0499
     42 H7         43.4724   38.0678   -6.9651 H           1 MOL       0.0557
     43 H8         47.2162   37.1653   -5.2226 H           1 MOL       0.0557
     44 H9         43.5643   36.0034   -8.2003 H           1 MOL       0.0599
     45 H10        47.2541   35.0709   -6.4079 H           1 MOL       0.0599
     46 H11        45.4492   34.4949   -7.9284 H           1 MOL       0.0559
     47 H12        42.5986   39.3114   -3.2469 H           1 MOL       0.0496
     48 H13        42.3695   38.3788   -1.7800 H           1 MOL       0.0496
     49 H14        41.7953   37.5030   -4.6322 H           1 MOL       0.0576
     50 H15        42.1192   35.3817   -4.0088 H           1 MOL       0.0454
     51 H16        40.4949   35.4929   -3.4309 H           1 MOL       0.0454
     52 H17        40.9302   36.9019   -0.7653 H           1 MOL       0.0557
     53 H18        42.9967   33.6984   -2.5954 H           1 MOL       0.0557
     54 H19        41.5501   36.0510    1.3957 H           1 MOL       0.0599
     55 H20        43.5678   32.8417   -0.4234 H           1 MOL       0.0599
     56 H21        42.8588   34.0095    1.5818 H           1 MOL       0.0559
     57 H22        40.6425   39.5512   -4.6686 H           1 MOL       0.1876
     58 H23        38.7691   40.6566   -4.8781 H           1 MOL       0.0749
     59 H24        36.5675   39.5386   -4.4329 H           1 MOL       0.0467
     60 H25        37.4183   38.1104   -3.8838 H           1 MOL       0.0467
     61 H26        39.4091   37.4058   -5.7127 H           1 MOL       0.0557
     62 H27        35.7409   39.3182   -6.6305 H           1 MOL       0.0557
     63 H28        39.5127   36.5612   -7.9803 H           1 MOL       0.0599
     64 H29        35.8429   38.4167   -8.8669 H           1 MOL       0.0599
     65 H30        37.7246   37.0413   -9.5557 H           1 MOL       0.0559
@<TRIPOS>BOND
     1    24    25   1
     2    25    28   1
     3    25    26   1
     4    26    27  ar
     5    26    35  ar
     6    28    29   1
     7    29    30  ar
     8    29    31  ar
     9    31    33  ar
    10    33    34  ar
    11    32    34  ar
    12    30    32  ar
    13     2     1   1
    14     3     2   1
    15     2     6   1
    16     3     4  ar
    17     3     5  ar
    18    13     3   1
    19     6     7   1
    20     7     8  ar
    21     7     9  ar
    22     8    10  ar
    23     9    11  ar
    24    10    12  ar
    25    11    12  ar
    26    14    13   1
    27    14    15   1
    28    22    14   1
    29    15    16   1
    30    16    17  ar
    31    16    18  ar
    32    17    19  ar
    33    18    20  ar
    34    19    21  ar
    35    20    21  ar
    36    22    23   2
    37    22    24  am
    38     1    36   1
    39     1    37   1
    40     1    38   1
    41     2    39   1
    42     6    40   1
    43     6    41   1
    44     8    42   1
    45     9    43   1
    46    10    44   1
    47    11    45   1
    48    12    46   1
    49    13    47   1
    50    13    48   1
    51    14    49   1
    52    15    50   1
    53    15    51   1
    54    17    52   1
    55    18    53   1
    56    19    54   1
    57    20    55   1
    58    21    56   1
    59    24    57   1
    60    25    58   1
    61    28    59   1
    62    28    60   1
    63    30    61   1
    64    31    62   1
    65    32    63   1
    66    33    64   1
    67    34    65   1
@<TRIPOS>SUBSTRUCTURE
     1  MOL      2

