@<TRIPOS>MOLECULE
1os0_ligand_038
    65    67
SMALL
GAST_HUCK
****
This file was generated by PARSER (from files_GN.cpp)

@<TRIPOS>ATOM
      1 N          32.2398   37.9025   -5.6810 N.4         1 MOL       0.2351
      2 CA         33.1813   37.4709   -6.7265 C.3         1 MOL       0.0466
      3 P          33.6013   38.8058   -7.6475 P.3         1 MOL       0.0403
      4 O1P        32.3942   39.5208   -7.9975 O.co2       1 MOL      -0.6153
      5 O2P        34.3394   39.7248   -6.8141 O.co2       1 MOL      -0.6153
      6 CB         32.6100   36.2412   -7.5148 C.3         1 MOL       0.0407
      7 CG         31.4247   36.5034   -8.3891 C.ar        1 MOL      -0.0360
      8 CD1        31.5468   36.4765   -9.8007 C.ar        1 MOL      -0.0601
      9 CD2        30.1752   36.8580   -7.8258 C.ar        1 MOL      -0.0601
     10 CE1        30.4715   36.8619  -10.6245 C.ar        1 MOL      -0.0686
     11 CE2        29.0958   37.2289   -8.6490 C.ar        1 MOL      -0.0686
     12 CZ         29.2473   37.2425  -10.0483 C.ar        1 MOL      -0.0687
     13 CM         34.5867   38.4631   -8.9578 C.3         1 MOL       0.0402
     14 CA         34.4640   39.2788  -10.3066 C.3         1 MOL       0.0742
     15 CB         33.8737   38.4278  -11.4962 C.3         1 MOL       0.0021
     16 CG         34.1418   38.9638  -12.8677 C.ar        1 MOL      -0.0405
     17 CD1        35.0372   38.3132  -13.7604 C.ar        1 MOL      -0.0602
     18 CD2        33.4607   40.1179  -13.3332 C.ar        1 MOL      -0.0602
     19 CE1        35.2414   38.8087  -15.0634 C.ar        1 MOL      -0.0686
     20 CE2        33.6885   40.6303  -14.6260 C.ar        1 MOL      -0.0686
     21 CZ         34.5774   39.9760  -15.4994 C.ar        1 MOL      -0.0687
     22 C          33.8176   40.5948  -10.1582 C.2         1 MOL       0.1844
     23 O          32.6133   40.6815  -10.3501 O.2         1 MOL      -0.3964
     24 N          34.4756   41.6469   -9.6778 N.am        1 MOL      -0.2692
     25 CA         33.9754   42.9980   -9.5505 C.3         1 MOL       0.1038
     26 C          32.7135   43.1163   -8.7665 C.2         1 MOL       0.0621
     27 O          32.3639   42.1980   -7.8362 O.co2       1 MOL      -0.5664
     28 CB         33.9942   43.7385  -10.9436 C.3         1 MOL       0.0159
     29 CG         32.6987   44.2485  -11.4864 C.ar        1 MOL      -0.0392
     30 CD1        32.4378   45.6442  -11.5657 C.ar        1 MOL      -0.0602
     31 CD2        31.7003   43.3637  -11.9470 C.ar        1 MOL      -0.0602
     32 CE1        31.2168   46.1215  -12.0705 C.ar        1 MOL      -0.0686
     33 CE2        30.4818   43.8360  -12.4686 C.ar        1 MOL      -0.0686
     34 CZ         30.2411   45.2196  -12.5297 C.ar        1 MOL      -0.0687
     35 OXT        32.0607   44.3021   -8.6908 O.co2       1 MOL      -0.5664
     36 H1         31.8191   37.0941   -5.2184 H           1 MOL       0.2014
     37 H2         31.4932   38.4646   -6.0976 H           1 MOL       0.2014
     38 H3         32.7331   38.4692   -4.9876 H           1 MOL       0.2014
     39 H4         34.0771   37.1295   -6.2070 H           1 MOL       0.1089
     40 H5         32.3377   35.4506   -6.8025 H           1 MOL       0.0499
     41 H6         33.4266   35.8186   -8.1133 H           1 MOL       0.0499
     42 H7         32.4280   36.2034  -10.2390 H           1 MOL       0.0557
     43 H8         30.0474   36.8623   -6.8128 H           1 MOL       0.0557
     44 H9         30.5802   36.8656  -11.6417 H           1 MOL       0.0599
     45 H10        28.1998   37.4855   -8.2323 H           1 MOL       0.0599
     46 H11        28.4691   37.5417  -10.6459 H           1 MOL       0.0559
     47 H12        34.4731   37.3986   -9.1788 H           1 MOL       0.0496
     48 H13        35.6148   38.5609   -8.5966 H           1 MOL       0.0496
     49 H14        35.5000   39.4817  -10.6120 H           1 MOL       0.0576
     50 H15        32.7959   38.3101  -11.3599 H           1 MOL       0.0454
     51 H16        34.2813   37.4154  -11.4406 H           1 MOL       0.0454
     52 H17        35.5375   37.4649  -13.4692 H           1 MOL       0.0557
     53 H18        32.7698   40.5875  -12.7421 H           1 MOL       0.0557
     54 H19        35.8728   38.3288  -15.7068 H           1 MOL       0.0599
     55 H20        33.1966   41.4756  -14.9339 H           1 MOL       0.0599
     56 H21        34.7201   40.3295  -16.4508 H           1 MOL       0.0559
     57 H22        35.4013   41.5008   -9.4160 H           1 MOL       0.1876
     58 H23        34.7185   43.5008   -8.9249 H           1 MOL       0.0749
     59 H24        34.4306   43.0914  -11.7124 H           1 MOL       0.0467
     60 H25        34.6889   44.5773  -10.8589 H           1 MOL       0.0467
     61 H26        33.1357   46.3221  -11.2349 H           1 MOL       0.0557
     62 H27        31.8506   42.3572  -11.9178 H           1 MOL       0.0557
     63 H28        31.0402   47.1302  -12.0988 H           1 MOL       0.0599
     64 H29        29.7708   43.1774  -12.7901 H           1 MOL       0.0599
     65 H30        29.3637   45.5640  -12.9222 H           1 MOL       0.0559
@<TRIPOS>BOND
     1    24    25   1
     2    25    28   1
     3    25    26   1
     4    26    27  ar
     5    26    35  ar
     6    28    29   1
     7    29    30  ar
     8    29    31  ar
     9    31    33  ar
    10    33    34  ar
    11    32    34  ar
    12    30    32  ar
    13     2     1   1
    14     3     2   1
    15     2     6   1
    16     3     4  ar
    17     3     5  ar
    18    13     3   1
    19     6     7   1
    20     7     8  ar
    21     7     9  ar
    22     8    10  ar
    23     9    11  ar
    24    10    12  ar
    25    11    12  ar
    26    14    13   1
    27    14    15   1
    28    22    14   1
    29    15    16   1
    30    16    17  ar
    31    16    18  ar
    32    17    19  ar
    33    18    20  ar
    34    19    21  ar
    35    20    21  ar
    36    22    23   2
    37    22    24  am
    38     1    36   1
    39     1    37   1
    40     1    38   1
    41     2    39   1
    42     6    40   1
    43     6    41   1
    44     8    42   1
    45     9    43   1
    46    10    44   1
    47    11    45   1
    48    12    46   1
    49    13    47   1
    50    13    48   1
    51    14    49   1
    52    15    50   1
    53    15    51   1
    54    17    52   1
    55    18    53   1
    56    19    54   1
    57    20    55   1
    58    21    56   1
    59    24    57   1
    60    25    58   1
    61    28    59   1
    62    28    60   1
    63    30    61   1
    64    31    62   1
    65    32    63   1
    66    33    64   1
    67    34    65   1
@<TRIPOS>SUBSTRUCTURE
     1  MOL      2

