@<TRIPOS>MOLECULE
1os0_ligand_023
    65    67
SMALL
GAST_HUCK
****
This file was generated by PARSER (from files_GN.cpp)

@<TRIPOS>ATOM
      1 N          34.9999   39.5454   -5.7068 N.4         1 MOL       0.2351
      2 CA         35.1181   41.0054   -5.5599 C.3         1 MOL       0.0466
      3 P          34.9819   41.7314   -7.0718 P.3         1 MOL       0.0403
      4 O1P        35.7618   42.9498   -7.1109 O.co2       1 MOL      -0.6153
      5 O2P        35.5044   40.8745   -8.1057 O.co2       1 MOL      -0.6153
      6 CB         36.4068   41.3194   -4.7229 C.3         1 MOL       0.0407
      7 CG         36.2409   42.3355   -3.6411 C.ar        1 MOL      -0.0360
      8 CD1        35.3304   42.1123   -2.5793 C.ar        1 MOL      -0.0601
      9 CD2        37.0416   43.5055   -3.5927 C.ar        1 MOL      -0.0601
     10 CE1        35.2038   43.0261   -1.5182 C.ar        1 MOL      -0.0686
     11 CE2        36.9249   44.4213   -2.5268 C.ar        1 MOL      -0.0686
     12 CZ         35.9924   44.1911   -1.4927 C.ar        1 MOL      -0.0687
     13 CM         33.3879   42.1437   -7.4058 C.3         1 MOL       0.0402
     14 CA         32.9329   42.5929   -8.8557 C.3         1 MOL       0.0742
     15 CB         34.0156   43.3007   -9.7369 C.3         1 MOL       0.0021
     16 CG         33.4858   44.0315  -10.9248 C.ar        1 MOL      -0.0405
     17 CD1        33.8837   43.6785  -12.2375 C.ar        1 MOL      -0.0602
     18 CD2        32.6605   45.1732  -10.7668 C.ar        1 MOL      -0.0602
     19 CE1        33.4802   44.4461  -13.3506 C.ar        1 MOL      -0.0686
     20 CE2        32.2504   45.9389  -11.8762 C.ar        1 MOL      -0.0686
     21 CZ         32.6570   45.5735  -13.1728 C.ar        1 MOL      -0.0687
     22 C          32.2704   41.5266   -9.6172 C.2         1 MOL       0.1844
     23 O          32.7355   40.3829   -9.5889 O.2         1 MOL      -0.3964
     24 N          31.1184   41.7827  -10.2334 N.am        1 MOL      -0.2692
     25 CA         30.1896   40.8908  -10.8781 C.3         1 MOL       0.1038
     26 C          29.4264   40.0986   -9.8714 C.2         1 MOL       0.0621
     27 O          30.0141   39.1587   -9.0982 O.co2       1 MOL      -0.5664
     28 CB         30.7813   39.9724  -11.9945 C.3         1 MOL       0.0159
     29 CG         31.4812   40.6594  -13.1214 C.ar        1 MOL      -0.0392
     30 CD1        32.8164   40.3305  -13.4627 C.ar        1 MOL      -0.0602
     31 CD2        30.7867   41.5726  -13.9527 C.ar        1 MOL      -0.0602
     32 CE1        33.4320   40.8815  -14.6041 C.ar        1 MOL      -0.0686
     33 CE2        31.4033   42.1360  -15.0890 C.ar        1 MOL      -0.0686
     34 CZ         32.7215   41.7794  -15.4219 C.ar        1 MOL      -0.0687
     35 OXT        28.0602   40.1367   -9.8764 O.co2       1 MOL      -0.5664
     36 H1         35.0382   39.1269   -4.7717 H           1 MOL       0.2014
     37 H2         35.7772   39.1830   -6.2648 H           1 MOL       0.2014
     38 H3         34.1096   39.3036   -6.1493 H           1 MOL       0.2014
     39 H4         34.2455   41.3192   -4.9759 H           1 MOL       0.1089
     40 H5         37.2347   41.5913   -5.3877 H           1 MOL       0.0499
     41 H6         36.7428   40.4173   -4.2061 H           1 MOL       0.0499
     42 H7         34.7668   41.2576   -2.5560 H           1 MOL       0.0557
     43 H8         37.7325   43.6886   -4.3202 H           1 MOL       0.0557
     44 H9         34.5364   42.8493   -0.7608 H           1 MOL       0.0599
     45 H10        37.5231   45.2496   -2.4912 H           1 MOL       0.0599
     46 H11        35.9011   44.8564   -0.7224 H           1 MOL       0.0559
     47 H12        33.1572   42.9673   -6.7108 H           1 MOL       0.0496
     48 H13        32.7579   41.3016   -7.0825 H           1 MOL       0.0496
     49 H14        32.1709   43.3635   -8.6633 H           1 MOL       0.0576
     50 H15        34.7582   42.5592  -10.0452 H           1 MOL       0.0454
     51 H16        34.5481   44.0403   -9.1258 H           1 MOL       0.0454
     52 H17        34.4875   42.8625  -12.3948 H           1 MOL       0.0557
     53 H18        32.3737   45.4730   -9.8328 H           1 MOL       0.0557
     54 H19        33.8043   44.1939  -14.2939 H           1 MOL       0.0599
     55 H20        31.6613   46.7689  -11.7459 H           1 MOL       0.0599
     56 H21        32.3794   46.1320  -13.9775 H           1 MOL       0.0559
     57 H22        30.8428   42.7187  -10.2351 H           1 MOL       0.1876
     58 H23        29.4635   41.5428  -11.3554 H           1 MOL       0.0749
     59 H24        29.9513   39.4152  -12.4343 H           1 MOL       0.0467
     60 H25        31.4368   39.2369  -11.5320 H           1 MOL       0.0467
     61 H26        33.3476   39.6641  -12.9007 H           1 MOL       0.0557
     62 H27        29.8112   41.8171  -13.7583 H           1 MOL       0.0557
     63 H28        34.3852   40.6175  -14.8551 H           1 MOL       0.0599
     64 H29        30.8876   42.7961  -15.6767 H           1 MOL       0.0599
     65 H30        33.1614   42.1726  -16.2585 H           1 MOL       0.0559
@<TRIPOS>BOND
     1    24    25   1
     2    25    28   1
     3    25    26   1
     4    26    27  ar
     5    26    35  ar
     6    28    29   1
     7    29    30  ar
     8    29    31  ar
     9    31    33  ar
    10    33    34  ar
    11    32    34  ar
    12    30    32  ar
    13     2     1   1
    14     3     2   1
    15     2     6   1
    16     3     4  ar
    17     3     5  ar
    18    13     3   1
    19     6     7   1
    20     7     8  ar
    21     7     9  ar
    22     8    10  ar
    23     9    11  ar
    24    10    12  ar
    25    11    12  ar
    26    14    13   1
    27    14    15   1
    28    22    14   1
    29    15    16   1
    30    16    17  ar
    31    16    18  ar
    32    17    19  ar
    33    18    20  ar
    34    19    21  ar
    35    20    21  ar
    36    22    23   2
    37    22    24  am
    38     1    36   1
    39     1    37   1
    40     1    38   1
    41     2    39   1
    42     6    40   1
    43     6    41   1
    44     8    42   1
    45     9    43   1
    46    10    44   1
    47    11    45   1
    48    12    46   1
    49    13    47   1
    50    13    48   1
    51    14    49   1
    52    15    50   1
    53    15    51   1
    54    17    52   1
    55    18    53   1
    56    19    54   1
    57    20    55   1
    58    21    56   1
    59    24    57   1
    60    25    58   1
    61    28    59   1
    62    28    60   1
    63    30    61   1
    64    31    62   1
    65    32    63   1
    66    33    64   1
    67    34    65   1
@<TRIPOS>SUBSTRUCTURE
     1  MOL      2

