@<TRIPOS>MOLECULE
1os0_ligand_076
    65    67
SMALL
GAST_HUCK
****
This file was generated by PARSER (from files_GN.cpp)

@<TRIPOS>ATOM
      1 N          37.4268   36.4435   -1.7842 N.4         1 MOL       0.2351
      2 CA         38.1258   37.4831   -1.0110 C.3         1 MOL       0.0466
      3 P          37.3858   38.9702   -1.2113 P.3         1 MOL       0.0403
      4 O1P        35.9894   38.8748   -0.8741 O.co2       1 MOL      -0.6153
      5 O2P        37.9647   39.8076   -0.1856 O.co2       1 MOL      -0.6153
      6 CB         39.6539   37.4913   -1.3548 C.3         1 MOL       0.0407
      7 CG         40.5814   36.4901   -0.7327 C.ar        1 MOL      -0.0360
      8 CD1        40.4126   36.0095    0.5868 C.ar        1 MOL      -0.0601
      9 CD2        41.7837   36.1608   -1.4175 C.ar        1 MOL      -0.0601
     10 CE1        41.4048   35.2095    1.1950 C.ar        1 MOL      -0.0686
     11 CE2        42.7741   35.3656   -0.8099 C.ar        1 MOL      -0.0686
     12 CZ         42.5864   34.8919    0.5010 C.ar        1 MOL      -0.0687
     13 CM         37.6209   39.6487   -2.7199 C.3         1 MOL       0.0402
     14 CA         36.6696   40.8141   -3.1940 C.3         1 MOL       0.0742
     15 CB         37.0494   42.2492   -2.6788 C.3         1 MOL       0.0021
     16 CG         37.1728   42.4473   -1.2059 C.ar        1 MOL      -0.0405
     17 CD1        38.4314   42.7543   -0.6233 C.ar        1 MOL      -0.0602
     18 CD2        36.0472   42.3418   -0.3516 C.ar        1 MOL      -0.0602
     19 CE1        38.5646   42.9263    0.7663 C.ar        1 MOL      -0.0686
     20 CE2        36.1824   42.5106    1.0411 C.ar        1 MOL      -0.0686
     21 CZ         37.4417   42.7991    1.5986 C.ar        1 MOL      -0.0687
     22 C          36.6241   40.8491   -4.6541 C.2         1 MOL       0.1844
     23 O          37.6990   40.9226   -5.2529 O.2         1 MOL      -0.3964
     24 N          35.4689   40.8159   -5.3122 N.am        1 MOL      -0.2692
     25 CA         35.2711   40.9554   -6.7298 C.3         1 MOL       0.1038
     26 C          34.5795   42.2550   -6.9173 C.2         1 MOL       0.0621
     27 O          35.2908   43.3970   -6.7686 O.co2       1 MOL      -0.5664
     28 CB         34.5397   39.7000   -7.3324 C.3         1 MOL       0.0159
     29 CG         35.4382   38.8070   -8.1180 C.ar        1 MOL      -0.0392
     30 CD1        35.7007   37.4760   -7.7157 C.ar        1 MOL      -0.0602
     31 CD2        36.0208   39.2784   -9.3187 C.ar        1 MOL      -0.0602
     32 CE1        36.5425   36.6485   -8.4856 C.ar        1 MOL      -0.0686
     33 CE2        36.8674   38.4547  -10.0829 C.ar        1 MOL      -0.0686
     34 CZ         37.1308   37.1386   -9.6648 C.ar        1 MOL      -0.0687
     35 OXT        33.2941   42.3632   -7.3343 O.co2       1 MOL      -0.5664
     36 H1         37.8847   35.5370   -1.6396 H           1 MOL       0.2014
     37 H2         37.4347   36.6636   -2.7840 H           1 MOL       0.2014
     38 H3         36.4551   36.3657   -1.4626 H           1 MOL       0.2014
     39 H4         38.0072   37.2118    0.0409 H           1 MOL       0.1089
     40 H5         40.0901   38.4654   -1.1060 H           1 MOL       0.0499
     41 H6         39.7303   37.4043   -2.4527 H           1 MOL       0.0499
     42 H7         39.5852   36.2600    1.1290 H           1 MOL       0.0557
     43 H8         41.9662   36.5255   -2.3562 H           1 MOL       0.0557
     44 H9         41.2787   34.8742    2.1584 H           1 MOL       0.0599
     45 H10        43.6383   35.1528   -1.3056 H           1 MOL       0.0599
     46 H11        43.3203   34.3223    0.9560 H           1 MOL       0.0559
     47 H12        37.5215   38.8134   -3.4223 H           1 MOL       0.0496
     48 H13        38.6637   39.9926   -2.7755 H           1 MOL       0.0496
     49 H14        35.6635   40.5974   -2.8252 H           1 MOL       0.0576
     50 H15        36.2873   42.9505   -3.0238 H           1 MOL       0.0454
     51 H16        37.9823   42.5505   -3.1618 H           1 MOL       0.0454
     52 H17        39.2666   42.8367   -1.2070 H           1 MOL       0.0557
     53 H18        35.1248   42.1222   -0.7359 H           1 MOL       0.0557
     54 H19        39.4819   43.1333    1.1678 H           1 MOL       0.0599
     55 H20        35.3662   42.4228    1.6491 H           1 MOL       0.0599
     56 H21        37.5391   42.9211    2.6081 H           1 MOL       0.0559
     57 H22        34.6578   40.7536   -4.7755 H           1 MOL       0.1876
     58 H23        36.2309   41.0776   -7.2430 H           1 MOL       0.0749
     59 H24        33.7403   40.0006   -8.0143 H           1 MOL       0.0467
     60 H25        34.0435   39.1485   -6.5277 H           1 MOL       0.0467
     61 H26        35.2799   37.0987   -6.8670 H           1 MOL       0.0557
     62 H27        35.8268   40.2249   -9.6507 H           1 MOL       0.0557
     63 H28        36.7239   35.6867   -8.1899 H           1 MOL       0.0599
     64 H29        37.2868   38.8076  -10.9466 H           1 MOL       0.0599
     65 H30        37.7440   36.5369  -10.2238 H           1 MOL       0.0559
@<TRIPOS>BOND
     1    24    25   1
     2    25    28   1
     3    25    26   1
     4    26    27  ar
     5    26    35  ar
     6    28    29   1
     7    29    30  ar
     8    29    31  ar
     9    31    33  ar
    10    33    34  ar
    11    32    34  ar
    12    30    32  ar
    13     2     1   1
    14     3     2   1
    15     2     6   1
    16     3     4  ar
    17     3     5  ar
    18    13     3   1
    19     6     7   1
    20     7     8  ar
    21     7     9  ar
    22     8    10  ar
    23     9    11  ar
    24    10    12  ar
    25    11    12  ar
    26    14    13   1
    27    14    15   1
    28    22    14   1
    29    15    16   1
    30    16    17  ar
    31    16    18  ar
    32    17    19  ar
    33    18    20  ar
    34    19    21  ar
    35    20    21  ar
    36    22    23   2
    37    22    24  am
    38     1    36   1
    39     1    37   1
    40     1    38   1
    41     2    39   1
    42     6    40   1
    43     6    41   1
    44     8    42   1
    45     9    43   1
    46    10    44   1
    47    11    45   1
    48    12    46   1
    49    13    47   1
    50    13    48   1
    51    14    49   1
    52    15    50   1
    53    15    51   1
    54    17    52   1
    55    18    53   1
    56    19    54   1
    57    20    55   1
    58    21    56   1
    59    24    57   1
    60    25    58   1
    61    28    59   1
    62    28    60   1
    63    30    61   1
    64    31    62   1
    65    32    63   1
    66    33    64   1
    67    34    65   1
@<TRIPOS>SUBSTRUCTURE
     1  MOL      2

