@<TRIPOS>MOLECULE
1os0_ligand_044
    65    67
SMALL
GAST_HUCK
****
This file was generated by PARSER (from files_GN.cpp)

@<TRIPOS>ATOM
      1 N          33.7843   42.6146   -6.0205 N.4         1 MOL       0.2351
      2 CA         34.4188   42.3404   -7.3214 C.3         1 MOL       0.0466
      3 P          33.2905   42.3604   -8.5710 P.3         1 MOL       0.0403
      4 O1P        33.0062   41.0403   -9.0805 O.co2       1 MOL      -0.6153
      5 O2P        32.0150   42.8499   -8.1027 O.co2       1 MOL      -0.6153
      6 CB         35.2505   41.0260   -7.2096 C.3         1 MOL       0.0407
      7 CG         36.2040   40.9512   -6.0484 C.ar        1 MOL      -0.0360
      8 CD1        37.0699   42.0278   -5.7394 C.ar        1 MOL      -0.0601
      9 CD2        36.2802   39.7774   -5.2506 C.ar        1 MOL      -0.0601
     10 CE1        37.9625   41.9447   -4.6544 C.ar        1 MOL      -0.0686
     11 CE2        37.1886   39.6887   -4.1845 C.ar        1 MOL      -0.0686
     12 CZ         38.0219   40.7728   -3.8708 C.ar        1 MOL      -0.0687
     13 CM         33.7320   43.3407   -9.8410 C.3         1 MOL       0.0402
     14 CA         32.7315   43.3952  -11.0693 C.3         1 MOL       0.0742
     15 CB         32.6242   44.8484  -11.6568 C.3         1 MOL       0.0021
     16 CG         31.6110   45.0112  -12.7315 C.ar        1 MOL      -0.0405
     17 CD1        30.2395   44.8366  -12.4450 C.ar        1 MOL      -0.0602
     18 CD2        31.9857   45.3853  -14.0481 C.ar        1 MOL      -0.0602
     19 CE1        29.2742   44.9556  -13.4566 C.ar        1 MOL      -0.0686
     20 CE2        31.0181   45.5061  -15.0531 C.ar        1 MOL      -0.0686
     21 CZ         29.6609   45.2780  -14.7678 C.ar        1 MOL      -0.0687
     22 C          33.0616   42.3475  -12.0441 C.2         1 MOL       0.1844
     23 O          33.8210   42.6388  -12.9822 O.2         1 MOL      -0.3964
     24 N          32.6139   41.0910  -11.8511 N.am        1 MOL      -0.2692
     25 CA         33.0278   39.9056  -12.5640 C.3         1 MOL       0.1038
     26 C          32.9943   40.1364  -14.0195 C.2         1 MOL       0.0621
     27 O          31.9054   40.6679  -14.6135 O.co2       1 MOL      -0.5664
     28 CB         32.1150   38.6837  -12.1984 C.3         1 MOL       0.0159
     29 CG         31.9106   38.4653  -10.7366 C.ar        1 MOL      -0.0392
     30 CD1        33.0088   38.2904   -9.8652 C.ar        1 MOL      -0.0602
     31 CD2        30.6010   38.4055  -10.1664 C.ar        1 MOL      -0.0602
     32 CE1        32.8213   38.1331   -8.4679 C.ar        1 MOL      -0.0686
     33 CE2        30.4137   38.2297   -8.7876 C.ar        1 MOL      -0.0686
     34 CZ         31.5250   38.1144   -7.9299 C.ar        1 MOL      -0.0687
     35 OXT        34.1260   40.0105  -14.7606 O.co2       1 MOL      -0.5664
     36 H1         34.5109   42.7405   -5.3093 H           1 MOL       0.2014
     37 H2         33.1865   41.8344   -5.7237 H           1 MOL       0.2014
     38 H3         33.2284   43.4733   -6.0687 H           1 MOL       0.2014
     39 H4         35.1073   43.1662   -7.5015 H           1 MOL       0.1089
     40 H5         35.8331   40.8882   -8.1252 H           1 MOL       0.0499
     41 H6         34.5481   40.1860   -7.1585 H           1 MOL       0.0499
     42 H7         37.0705   42.8738   -6.3164 H           1 MOL       0.0557
     43 H8         35.6774   38.9756   -5.4540 H           1 MOL       0.0557
     44 H9         38.5811   42.7262   -4.4427 H           1 MOL       0.0599
     45 H10        37.2507   38.8262   -3.6388 H           1 MOL       0.0599
     46 H11        38.6829   40.7102   -3.0880 H           1 MOL       0.0559
     47 H12        34.7206   43.0355  -10.1826 H           1 MOL       0.0496
     48 H13        33.8726   44.3397   -9.4369 H           1 MOL       0.0496
     49 H14        31.7238   43.1880  -10.6841 H           1 MOL       0.0576
     50 H15        33.6065   45.1809  -11.9733 H           1 MOL       0.0454
     51 H16        32.3589   45.5318  -10.8546 H           1 MOL       0.0454
     52 H17        29.9357   44.5933  -11.5011 H           1 MOL       0.0557
     53 H18        32.9699   45.5535  -14.2746 H           1 MOL       0.0557
     54 H19        28.2880   44.8014  -13.2397 H           1 MOL       0.0599
     55 H20        31.2993   45.7458  -16.0067 H           1 MOL       0.0599
     56 H21        28.9583   45.3667  -15.5021 H           1 MOL       0.0559
     57 H22        32.0194   40.9650  -11.0809 H           1 MOL       0.1876
     58 H23        34.0507   39.6519  -12.2573 H           1 MOL       0.0749
     59 H24        32.5542   37.7742  -12.6089 H           1 MOL       0.0467
     60 H25        31.1366   38.8095  -12.6674 H           1 MOL       0.0467
     61 H26        33.9660   38.2931  -10.2362 H           1 MOL       0.0557
     62 H27        29.7755   38.5164  -10.7773 H           1 MOL       0.0557
     63 H28        33.6359   38.0512   -7.8538 H           1 MOL       0.0599
     64 H29        29.4677   38.2011   -8.4019 H           1 MOL       0.0599
     65 H30        31.3896   38.0342   -6.9306 H           1 MOL       0.0559
@<TRIPOS>BOND
     1    24    25   1
     2    25    28   1
     3    25    26   1
     4    26    27  ar
     5    26    35  ar
     6    28    29   1
     7    29    30  ar
     8    29    31  ar
     9    31    33  ar
    10    33    34  ar
    11    32    34  ar
    12    30    32  ar
    13     2     1   1
    14     3     2   1
    15     2     6   1
    16     3     4  ar
    17     3     5  ar
    18    13     3   1
    19     6     7   1
    20     7     8  ar
    21     7     9  ar
    22     8    10  ar
    23     9    11  ar
    24    10    12  ar
    25    11    12  ar
    26    14    13   1
    27    14    15   1
    28    22    14   1
    29    15    16   1
    30    16    17  ar
    31    16    18  ar
    32    17    19  ar
    33    18    20  ar
    34    19    21  ar
    35    20    21  ar
    36    22    23   2
    37    22    24  am
    38     1    36   1
    39     1    37   1
    40     1    38   1
    41     2    39   1
    42     6    40   1
    43     6    41   1
    44     8    42   1
    45     9    43   1
    46    10    44   1
    47    11    45   1
    48    12    46   1
    49    13    47   1
    50    13    48   1
    51    14    49   1
    52    15    50   1
    53    15    51   1
    54    17    52   1
    55    18    53   1
    56    19    54   1
    57    20    55   1
    58    21    56   1
    59    24    57   1
    60    25    58   1
    61    28    59   1
    62    28    60   1
    63    30    61   1
    64    31    62   1
    65    32    63   1
    66    33    64   1
    67    34    65   1
@<TRIPOS>SUBSTRUCTURE
     1  MOL      2

