@<TRIPOS>MOLECULE
1os0_ligand_003
    65    67
SMALL
GAST_HUCK
****
This file was generated by PARSER (from files_GN.cpp)

@<TRIPOS>ATOM
      1 N          35.0223   41.7486   -2.6101 N.4         1 MOL       0.2351
      2 CA         35.9877   42.2969   -3.5739 C.3         1 MOL       0.0466
      3 P          35.4044   42.1098   -5.1356 P.3         1 MOL       0.0403
      4 O1P        33.9813   42.3259   -5.1938 O.co2       1 MOL      -0.6153
      5 O2P        35.9273   43.2350   -5.8688 O.co2       1 MOL      -0.6153
      6 CB         37.4525   41.8095   -3.3049 C.3         1 MOL       0.0407
      7 CG         37.6462   40.3571   -3.0051 C.ar        1 MOL      -0.0360
      8 CD1        37.2658   39.8208   -1.7482 C.ar        1 MOL      -0.0601
      9 CD2        38.2507   39.4808   -3.9418 C.ar        1 MOL      -0.0601
     10 CE1        37.4139   38.4503   -1.4622 C.ar        1 MOL      -0.0686
     11 CE2        38.3995   38.1068   -3.6637 C.ar        1 MOL      -0.0686
     12 CZ         37.9758   37.5904   -2.4257 C.ar        1 MOL      -0.0687
     13 CM         35.8392   40.7651   -6.0401 C.3         1 MOL       0.0402
     14 CA         35.5087   40.6977   -7.5853 C.3         1 MOL       0.0742
     15 CB         34.4474   39.5618   -7.8670 C.3         1 MOL       0.0021
     16 CG         34.7278   38.1466   -7.4607 C.ar        1 MOL      -0.0405
     17 CD1        33.6160   37.3071   -7.1930 C.ar        1 MOL      -0.0602
     18 CD2        36.0230   37.5702   -7.3881 C.ar        1 MOL      -0.0602
     19 CE1        33.7868   35.9451   -6.8823 C.ar        1 MOL      -0.0686
     20 CE2        36.1956   36.2105   -7.0733 C.ar        1 MOL      -0.0686
     21 CZ         35.0776   35.3954   -6.8281 C.ar        1 MOL      -0.0687
     22 C          35.1859   41.9720   -8.2558 C.2         1 MOL       0.1844
     23 O          35.6882   43.0281   -7.8902 O.2         1 MOL      -0.3964
     24 N          34.4264   41.9938   -9.3438 N.am        1 MOL      -0.2692
     25 CA         33.7239   43.1375   -9.8623 C.3         1 MOL       0.1038
     26 C          32.5092   43.3597   -9.0379 C.2         1 MOL       0.0621
     27 O          31.9262   44.5745   -8.9691 O.co2       1 MOL      -0.5664
     28 CB         33.3618   42.9037  -11.3641 C.3         1 MOL       0.0159
     29 CG         32.1362   43.6189  -11.8225 C.ar        1 MOL      -0.0392
     30 CD1        30.9697   42.9064  -12.1927 C.ar        1 MOL      -0.0602
     31 CD2        32.0920   45.0352  -11.8338 C.ar        1 MOL      -0.0602
     32 CE1        29.7868   43.5855  -12.5333 C.ar        1 MOL      -0.0686
     33 CE2        30.9087   45.7159  -12.1709 C.ar        1 MOL      -0.0686
     34 CZ         29.7519   44.9929  -12.5162 C.ar        1 MOL      -0.0687
     35 OXT        31.9362   42.3407   -8.3617 O.co2       1 MOL      -0.5664
     36 H1         35.3323   41.9493   -1.6569 H           1 MOL       0.2014
     37 H2         34.9414   40.7367   -2.7393 H           1 MOL       0.2014
     38 H3         34.1086   42.1853   -2.7586 H           1 MOL       0.2014
     39 H4         35.9873   43.3725   -3.3769 H           1 MOL       0.1089
     40 H5         37.8482   42.3616   -2.4476 H           1 MOL       0.0499
     41 H6         38.0808   42.1014   -4.1512 H           1 MOL       0.0499
     42 H7         36.8765   40.4264   -1.0248 H           1 MOL       0.0557
     43 H8         38.5756   39.8355   -4.8405 H           1 MOL       0.0557
     44 H9         37.1299   38.0783   -0.5531 H           1 MOL       0.0599
     45 H10        38.8214   37.4873   -4.3590 H           1 MOL       0.0599
     46 H11        38.0831   36.5951   -2.2230 H           1 MOL       0.0559
     47 H12        35.3711   39.9117   -5.5521 H           1 MOL       0.0496
     48 H13        36.9160   40.6367   -5.9176 H           1 MOL       0.0496
     49 H14        36.4278   40.3990   -8.0877 H           1 MOL       0.0576
     50 H15        34.2562   39.5011   -8.9410 H           1 MOL       0.0454
     51 H16        33.5009   39.8604   -7.4097 H           1 MOL       0.0454
     52 H17        32.6624   37.6818   -7.2363 H           1 MOL       0.0557
     53 H18        36.8609   38.1250   -7.5631 H           1 MOL       0.0557
     54 H19        32.9700   35.3561   -6.6969 H           1 MOL       0.0599
     55 H20        37.1375   35.8135   -7.0258 H           1 MOL       0.0599
     56 H21        35.2058   34.4068   -6.6043 H           1 MOL       0.0559
     57 H22        34.2094   41.1363   -9.7385 H           1 MOL       0.1876
     58 H23        34.3780   44.0146   -9.8001 H           1 MOL       0.0749
     59 H24        33.2506   41.8268  -11.5310 H           1 MOL       0.0467
     60 H25        34.2027   43.2358  -11.9817 H           1 MOL       0.0467
     61 H26        30.9665   41.8840  -12.1970 H           1 MOL       0.0557
     62 H27        32.9192   45.5788  -11.5782 H           1 MOL       0.0557
     63 H28        28.9469   43.0599  -12.7868 H           1 MOL       0.0599
     64 H29        30.8861   46.7370  -12.1569 H           1 MOL       0.0599
     65 H30        28.8877   45.4864  -12.7505 H           1 MOL       0.0559
@<TRIPOS>BOND
     1    24    25   1
     2    25    28   1
     3    25    26   1
     4    26    27  ar
     5    26    35  ar
     6    28    29   1
     7    29    30  ar
     8    29    31  ar
     9    31    33  ar
    10    33    34  ar
    11    32    34  ar
    12    30    32  ar
    13     2     1   1
    14     3     2   1
    15     2     6   1
    16     3     4  ar
    17     3     5  ar
    18    13     3   1
    19     6     7   1
    20     7     8  ar
    21     7     9  ar
    22     8    10  ar
    23     9    11  ar
    24    10    12  ar
    25    11    12  ar
    26    14    13   1
    27    14    15   1
    28    22    14   1
    29    15    16   1
    30    16    17  ar
    31    16    18  ar
    32    17    19  ar
    33    18    20  ar
    34    19    21  ar
    35    20    21  ar
    36    22    23   2
    37    22    24  am
    38     1    36   1
    39     1    37   1
    40     1    38   1
    41     2    39   1
    42     6    40   1
    43     6    41   1
    44     8    42   1
    45     9    43   1
    46    10    44   1
    47    11    45   1
    48    12    46   1
    49    13    47   1
    50    13    48   1
    51    14    49   1
    52    15    50   1
    53    15    51   1
    54    17    52   1
    55    18    53   1
    56    19    54   1
    57    20    55   1
    58    21    56   1
    59    24    57   1
    60    25    58   1
    61    28    59   1
    62    28    60   1
    63    30    61   1
    64    31    62   1
    65    32    63   1
    66    33    64   1
    67    34    65   1
@<TRIPOS>SUBSTRUCTURE
     1  MOL      2

