@<TRIPOS>MOLECULE
1os0_ligand_045
    65    67
SMALL
GAST_HUCK
****
This file was generated by PARSER (from files_GN.cpp)

@<TRIPOS>ATOM
      1 N          33.3072   45.5491  -13.4947 N.4         1 MOL       0.2351
      2 CA         32.7082   45.5005  -12.1470 C.3         1 MOL       0.0466
      3 P          33.0917   44.0535  -11.3962 P.3         1 MOL       0.0403
      4 O1P        34.0083   43.3341  -12.2483 O.co2       1 MOL      -0.6153
      5 O2P        33.8748   44.3596  -10.2192 O.co2       1 MOL      -0.6153
      6 CB         31.1948   45.9043  -12.1526 C.3         1 MOL       0.0407
      7 CG         30.3244   45.2689  -13.1940 C.ar        1 MOL      -0.0360
      8 CD1        30.5843   45.4750  -14.5711 C.ar        1 MOL      -0.0601
      9 CD2        29.1923   44.4932  -12.8430 C.ar        1 MOL      -0.0601
     10 CE1        29.7846   44.8758  -15.5620 C.ar        1 MOL      -0.0686
     11 CE2        28.3992   43.8789  -13.8320 C.ar        1 MOL      -0.0686
     12 CZ         28.6964   44.0684  -15.1924 C.ar        1 MOL      -0.0687
     13 CM         31.8171   43.0726  -10.9479 C.3         1 MOL       0.0402
     14 CA         32.1140   41.6924  -10.2555 C.3         1 MOL       0.0742
     15 CB         32.9194   40.6899  -11.1619 C.3         1 MOL       0.0021
     16 CG         32.2975   40.4555  -12.5000 C.ar        1 MOL      -0.0405
     17 CD1        31.1151   39.6861  -12.6048 C.ar        1 MOL      -0.0602
     18 CD2        32.8433   41.0204  -13.6779 C.ar        1 MOL      -0.0602
     19 CE1        30.4966   39.4806  -13.8525 C.ar        1 MOL      -0.0686
     20 CE2        32.2205   40.8265  -14.9265 C.ar        1 MOL      -0.0686
     21 CZ         31.0459   40.0552  -15.0137 C.ar        1 MOL      -0.0687
     22 C          32.6315   41.8657   -8.8902 C.2         1 MOL       0.1844
     23 O          32.1187   42.7504   -8.2102 O.2         1 MOL      -0.3964
     24 N          33.6703   41.1816   -8.4091 N.am        1 MOL      -0.2692
     25 CA         34.3059   41.3759   -7.1224 C.3         1 MOL       0.1038
     26 C          35.1592   42.5895   -7.1520 C.2         1 MOL       0.0621
     27 O          35.6563   43.1137   -6.0118 O.co2       1 MOL      -0.5664
     28 CB         35.1679   40.1299   -6.7508 C.3         1 MOL       0.0159
     29 CG         34.4754   38.8145   -6.8556 C.ar        1 MOL      -0.0392
     30 CD1        35.1977   37.6397   -7.1940 C.ar        1 MOL      -0.0602
     31 CD2        33.0963   38.6914   -6.5518 C.ar        1 MOL      -0.0602
     32 CE1        34.5594   36.3859   -7.2342 C.ar        1 MOL      -0.0686
     33 CE2        32.4557   37.4412   -6.6039 C.ar        1 MOL      -0.0686
     34 CZ         33.1857   36.2871   -6.9467 C.ar        1 MOL      -0.0687
     35 OXT        35.3928   43.2751   -8.2874 O.co2       1 MOL      -0.5664
     36 H1         33.1180   46.4592  -13.9193 H           1 MOL       0.2014
     37 H2         32.9089   44.8148  -14.0851 H           1 MOL       0.2014
     38 H3         34.3174   45.4204  -13.4330 H           1 MOL       0.2014
     39 H4         33.2324   46.2786  -11.5841 H           1 MOL       0.1089
     40 H5         31.1308   46.9861  -12.3036 H           1 MOL       0.0499
     41 H6         30.7779   45.7309  -11.1562 H           1 MOL       0.0499
     42 H7         31.3588   46.0699  -14.8698 H           1 MOL       0.0557
     43 H8         28.9398   44.3568  -11.8633 H           1 MOL       0.0557
     44 H9         29.9930   45.0318  -16.5531 H           1 MOL       0.0599
     45 H10        27.6011   43.2973  -13.5635 H           1 MOL       0.0599
     46 H11        28.1177   43.6274  -15.9113 H           1 MOL       0.0559
     47 H12        31.2048   42.9089  -11.8340 H           1 MOL       0.0496
     48 H13        31.2031   43.6596  -10.2609 H           1 MOL       0.0496
     49 H14        31.1362   41.2147  -10.1182 H           1 MOL       0.0576
     50 H15        32.9828   39.7224  -10.6516 H           1 MOL       0.0454
     51 H16        33.9475   41.0378  -11.2800 H           1 MOL       0.0454
     52 H17        30.6912   39.2723  -11.7718 H           1 MOL       0.0557
     53 H18        33.6827   41.6024  -13.6358 H           1 MOL       0.0557
     54 H19        29.6400   38.9256  -13.9149 H           1 MOL       0.0599
     55 H20        32.6097   41.2563  -15.7679 H           1 MOL       0.0599
     56 H21        30.5902   39.9146  -15.9202 H           1 MOL       0.0559
     57 H22        34.0820   40.5302   -9.0004 H           1 MOL       0.1876
     58 H23        33.5583   41.5192   -6.3252 H           1 MOL       0.0749
     59 H24        35.5117   40.2341   -5.7188 H           1 MOL       0.0467
     60 H25        36.0641   40.1280   -7.3781 H           1 MOL       0.0467
     61 H26        36.2004   37.6882   -7.4008 H           1 MOL       0.0557
     62 H27        32.5480   39.5143   -6.2860 H           1 MOL       0.0557
     63 H28        35.1022   35.5451   -7.4566 H           1 MOL       0.0599
     64 H29        31.4592   37.3707   -6.3766 H           1 MOL       0.0599
     65 H30        32.7224   35.3769   -6.9765 H           1 MOL       0.0559
@<TRIPOS>BOND
     1    24    25   1
     2    25    28   1
     3    25    26   1
     4    26    27  ar
     5    26    35  ar
     6    28    29   1
     7    29    30  ar
     8    29    31  ar
     9    31    33  ar
    10    33    34  ar
    11    32    34  ar
    12    30    32  ar
    13     2     1   1
    14     3     2   1
    15     2     6   1
    16     3     4  ar
    17     3     5  ar
    18    13     3   1
    19     6     7   1
    20     7     8  ar
    21     7     9  ar
    22     8    10  ar
    23     9    11  ar
    24    10    12  ar
    25    11    12  ar
    26    14    13   1
    27    14    15   1
    28    22    14   1
    29    15    16   1
    30    16    17  ar
    31    16    18  ar
    32    17    19  ar
    33    18    20  ar
    34    19    21  ar
    35    20    21  ar
    36    22    23   2
    37    22    24  am
    38     1    36   1
    39     1    37   1
    40     1    38   1
    41     2    39   1
    42     6    40   1
    43     6    41   1
    44     8    42   1
    45     9    43   1
    46    10    44   1
    47    11    45   1
    48    12    46   1
    49    13    47   1
    50    13    48   1
    51    14    49   1
    52    15    50   1
    53    15    51   1
    54    17    52   1
    55    18    53   1
    56    19    54   1
    57    20    55   1
    58    21    56   1
    59    24    57   1
    60    25    58   1
    61    28    59   1
    62    28    60   1
    63    30    61   1
    64    31    62   1
    65    32    63   1
    66    33    64   1
    67    34    65   1
@<TRIPOS>SUBSTRUCTURE
     1  MOL      2

