@<TRIPOS>MOLECULE
1os0_ligand_079
    65    67
SMALL
GAST_HUCK
****
This file was generated by PARSER (from files_GN.cpp)

@<TRIPOS>ATOM
      1 N          32.4323   43.9730   -7.8822 N.4         1 MOL       0.2351
      2 CA         32.8318   42.6857   -8.4767 C.3         1 MOL       0.0466
      3 P          34.3888   42.3306   -7.9772 P.3         1 MOL       0.0403
      4 O1P        35.2686   43.4585   -8.1690 O.co2       1 MOL      -0.6153
      5 O2P        34.3777   42.2766   -6.5376 O.co2       1 MOL      -0.6153
      6 CB         32.5185   42.7086  -10.0098 C.3         1 MOL       0.0407
      7 CG         32.7624   43.9978  -10.7214 C.ar        1 MOL      -0.0360
      8 CD1        31.7201   44.9447  -10.8779 C.ar        1 MOL      -0.0601
      9 CD2        34.0316   44.3025  -11.2731 C.ar        1 MOL      -0.0601
     10 CE1        31.9319   46.1551  -11.5638 C.ar        1 MOL      -0.0686
     11 CE2        34.2457   45.5110  -11.9676 C.ar        1 MOL      -0.0686
     12 CZ         33.1964   46.4389  -12.1092 C.ar        1 MOL      -0.0687
     13 CM         35.1331   40.9539   -8.5708 C.3         1 MOL       0.0402
     14 CA         34.7879   39.5890   -7.8743 C.3         1 MOL       0.0742
     15 CB         35.3160   38.3795   -8.7193 C.3         1 MOL       0.0021
     16 CG         34.8225   37.0477   -8.2572 C.ar        1 MOL      -0.0405
     17 CD1        35.5390   36.3054   -7.2859 C.ar        1 MOL      -0.0602
     18 CD2        33.6300   36.4959   -8.7809 C.ar        1 MOL      -0.0602
     19 CE1        35.0800   35.0463   -6.8570 C.ar        1 MOL      -0.0686
     20 CE2        33.1756   35.2302   -8.3629 C.ar        1 MOL      -0.0686
     21 CZ         33.9015   34.5053   -7.4001 C.ar        1 MOL      -0.0687
     22 C          35.2910   39.5172   -6.4964 C.2         1 MOL       0.1844
     23 O          34.5341   39.1177   -5.6142 O.2         1 MOL      -0.3964
     24 N          36.5433   39.8555   -6.2168 N.am        1 MOL      -0.2692
     25 CA         37.1967   39.9083   -4.9379 C.3         1 MOL       0.1038
     26 C          37.7234   41.2813   -4.7245 C.2         1 MOL       0.0621
     27 O          36.9938   42.3534   -5.1094 O.co2       1 MOL      -0.5664
     28 CB         38.3115   38.8166   -4.9438 C.3         1 MOL       0.0159
     29 CG         38.8835   38.5067   -3.6051 C.ar        1 MOL      -0.0392
     30 CD1        38.0880   37.8778   -2.6175 C.ar        1 MOL      -0.0602
     31 CD2        40.2354   38.8002   -3.3012 C.ar        1 MOL      -0.0602
     32 CE1        38.6208   37.5644   -1.3541 C.ar        1 MOL      -0.0686
     33 CE2        40.7711   38.4784   -2.0413 C.ar        1 MOL      -0.0686
     34 CZ         39.9643   37.8658   -1.0658 C.ar        1 MOL      -0.0687
     35 OXT        38.7256   41.5315   -3.8473 O.co2       1 MOL      -0.5664
     36 H1         31.5188   44.2550   -8.2437 H           1 MOL       0.2014
     37 H2         33.1091   44.6848   -8.1520 H           1 MOL       0.2014
     38 H3         32.3985   43.9125   -6.8653 H           1 MOL       0.2014
     39 H4         32.1923   41.9188   -8.0340 H           1 MOL       0.1089
     40 H5         31.4558   42.4711  -10.1235 H           1 MOL       0.0499
     41 H6         33.0399   41.9083  -10.5332 H           1 MOL       0.0499
     42 H7         30.7901   44.7601  -10.4925 H           1 MOL       0.0557
     43 H8         34.8016   43.6360  -11.1842 H           1 MOL       0.0557
     44 H9         31.1676   46.8303  -11.6692 H           1 MOL       0.0599
     45 H10        35.1664   45.7159  -12.3654 H           1 MOL       0.0599
     46 H11        33.3490   47.3173  -12.6094 H           1 MOL       0.0559
     47 H12        36.2132   41.1036   -8.5285 H           1 MOL       0.0496
     48 H13        34.8857   40.8885   -9.6289 H           1 MOL       0.0496
     49 H14        33.6947   39.5017   -7.8661 H           1 MOL       0.0576
     50 H15        36.4100   38.3819   -8.7306 H           1 MOL       0.0454
     51 H16        35.0076   38.5121   -9.7612 H           1 MOL       0.0454
     52 H17        36.4029   36.6763   -6.8882 H           1 MOL       0.0557
     53 H18        33.0855   37.0092   -9.4791 H           1 MOL       0.0557
     54 H19        35.6064   34.5213   -6.1552 H           1 MOL       0.0599
     55 H20        32.3201   34.8366   -8.7592 H           1 MOL       0.0599
     56 H21        33.5724   33.5859   -7.0976 H           1 MOL       0.0559
     57 H22        37.0938   40.1300   -6.9658 H           1 MOL       0.1876
     58 H23        36.4891   39.7003   -4.1328 H           1 MOL       0.0749
     59 H24        39.0976   39.1242   -5.6432 H           1 MOL       0.0467
     60 H25        37.8989   37.8824   -5.3342 H           1 MOL       0.0467
     61 H26        37.1137   37.6341   -2.8160 H           1 MOL       0.0557
     62 H27        40.8367   39.2528   -3.9941 H           1 MOL       0.0557
     63 H28        38.0352   37.1138   -0.6497 H           1 MOL       0.0599
     64 H29        41.7480   38.6935   -1.8389 H           1 MOL       0.0599
     65 H30        40.3502   37.6351   -0.1501 H           1 MOL       0.0559
@<TRIPOS>BOND
     1    24    25   1
     2    25    28   1
     3    25    26   1
     4    26    27  ar
     5    26    35  ar
     6    28    29   1
     7    29    30  ar
     8    29    31  ar
     9    31    33  ar
    10    33    34  ar
    11    32    34  ar
    12    30    32  ar
    13     2     1   1
    14     3     2   1
    15     2     6   1
    16     3     4  ar
    17     3     5  ar
    18    13     3   1
    19     6     7   1
    20     7     8  ar
    21     7     9  ar
    22     8    10  ar
    23     9    11  ar
    24    10    12  ar
    25    11    12  ar
    26    14    13   1
    27    14    15   1
    28    22    14   1
    29    15    16   1
    30    16    17  ar
    31    16    18  ar
    32    17    19  ar
    33    18    20  ar
    34    19    21  ar
    35    20    21  ar
    36    22    23   2
    37    22    24  am
    38     1    36   1
    39     1    37   1
    40     1    38   1
    41     2    39   1
    42     6    40   1
    43     6    41   1
    44     8    42   1
    45     9    43   1
    46    10    44   1
    47    11    45   1
    48    12    46   1
    49    13    47   1
    50    13    48   1
    51    14    49   1
    52    15    50   1
    53    15    51   1
    54    17    52   1
    55    18    53   1
    56    19    54   1
    57    20    55   1
    58    21    56   1
    59    24    57   1
    60    25    58   1
    61    28    59   1
    62    28    60   1
    63    30    61   1
    64    31    62   1
    65    32    63   1
    66    33    64   1
    67    34    65   1
@<TRIPOS>SUBSTRUCTURE
     1  MOL      2

