@<TRIPOS>MOLECULE
1os0_ligand_006
    65    67
SMALL
GAST_HUCK
****
This file was generated by PARSER (from files_GN.cpp)

@<TRIPOS>ATOM
      1 N          33.0080   45.5970  -13.6707 N.4         1 MOL       0.2351
      2 CA         32.5417   45.6059  -12.2742 C.3         1 MOL       0.0466
      3 P          33.2989   44.4201  -11.3576 P.3         1 MOL       0.0403
      4 O1P        34.7101   44.6565  -11.5239 O.co2       1 MOL      -0.6153
      5 O2P        33.1209   44.7431   -9.9606 O.co2       1 MOL      -0.6153
      6 CB         30.9813   45.6900  -12.1650 C.3         1 MOL       0.0407
      7 CG         30.1373   44.9722  -13.1720 C.ar        1 MOL      -0.0360
      8 CD1        30.2062   45.2960  -14.5535 C.ar        1 MOL      -0.0601
      9 CD2        29.1280   44.0616  -12.7633 C.ar        1 MOL      -0.0601
     10 CE1        29.3530   44.6924  -15.4941 C.ar        1 MOL      -0.0686
     11 CE2        28.2531   43.4738  -13.7010 C.ar        1 MOL      -0.0686
     12 CZ         28.3683   43.7855  -15.0671 C.ar        1 MOL      -0.0687
     13 CM         33.0331   42.7885  -11.6584 C.3         1 MOL       0.0402
     14 CA         32.0232   42.0405  -10.7189 C.3         1 MOL       0.0742
     15 CB         31.6905   40.5976  -11.2372 C.3         1 MOL       0.0021
     16 CG         30.3673   40.0882  -10.7677 C.ar        1 MOL      -0.0405
     17 CD1        30.2623   39.1910   -9.6811 C.ar        1 MOL      -0.0602
     18 CD2        29.1788   40.5086  -11.4124 C.ar        1 MOL      -0.0602
     19 CE1        29.0047   38.7113   -9.2644 C.ar        1 MOL      -0.0686
     20 CE2        27.9203   40.0362  -10.9931 C.ar        1 MOL      -0.0686
     21 CZ         27.8334   39.1386   -9.9187 C.ar        1 MOL      -0.0687
     22 C          32.4713   41.9855   -9.3178 C.2         1 MOL       0.1844
     23 O          31.8344   42.6163   -8.4733 O.2         1 MOL      -0.3964
     24 N          33.6018   41.3696   -8.9743 N.am        1 MOL      -0.2692
     25 CA         34.2742   41.4770   -7.7040 C.3         1 MOL       0.1038
     26 C          35.1604   42.6682   -7.6968 C.2         1 MOL       0.0621
     27 O          35.7177   43.0781   -6.5347 O.co2       1 MOL      -0.5664
     28 CB         35.1132   40.2005   -7.3789 C.3         1 MOL       0.0159
     29 CG         34.3939   38.9127   -7.1355 C.ar        1 MOL      -0.0392
     30 CD1        33.1505   38.8674   -6.4614 C.ar        1 MOL      -0.0602
     31 CD2        35.0438   37.6851   -7.4233 C.ar        1 MOL      -0.0602
     32 CE1        32.5643   37.6415   -6.1035 C.ar        1 MOL      -0.0686
     33 CE2        34.4648   36.4586   -7.0528 C.ar        1 MOL      -0.0686
     34 CZ         33.2210   36.4347   -6.3922 C.ar        1 MOL      -0.0687
     35 OXT        35.5193   43.3181   -8.8274 O.co2       1 MOL      -0.5664
     36 H1         32.6372   46.4335  -14.1396 H           1 MOL       0.2014
     37 H2         32.6750   44.7497  -14.1435 H           1 MOL       0.2014
     38 H3         34.0410   45.6130  -13.6949 H           1 MOL       0.2014
     39 H4         32.9144   46.5486  -11.8631 H           1 MOL       0.1089
     40 H5         30.7012   46.7427  -12.2424 H           1 MOL       0.0499
     41 H6         30.6817   45.3943  -11.1512 H           1 MOL       0.0499
     42 H7         30.8719   45.9972  -14.8879 H           1 MOL       0.0557
     43 H8         29.0036   43.8353  -11.7792 H           1 MOL       0.0557
     44 H9         29.4289   44.9372  -16.4854 H           1 MOL       0.0599
     45 H10        27.5172   42.8336  -13.3871 H           1 MOL       0.0599
     46 H11        27.7272   43.3688  -15.7459 H           1 MOL       0.0559
     47 H12        33.9953   42.2672  -11.6142 H           1 MOL       0.0496
     48 H13        32.6864   42.7191  -12.6898 H           1 MOL       0.0496
     49 H14        31.0929   42.6125  -10.7697 H           1 MOL       0.0576
     50 H15        32.4872   39.9068  -10.9501 H           1 MOL       0.0454
     51 H16        31.6786   40.5981  -12.3331 H           1 MOL       0.0454
     52 H17        31.1007   38.8733   -9.1888 H           1 MOL       0.0557
     53 H18        29.2252   41.1438  -12.2073 H           1 MOL       0.0557
     54 H19        28.9386   38.0615   -8.4768 H           1 MOL       0.0599
     55 H20        27.0708   40.3479  -11.4724 H           1 MOL       0.0599
     56 H21        26.9209   38.7901   -9.6167 H           1 MOL       0.0559
     57 H22        34.0943   40.9240   -9.6940 H           1 MOL       0.1876
     58 H23        33.5534   41.6329   -6.9020 H           1 MOL       0.0749
     59 H24        35.6903   40.3929   -6.4635 H           1 MOL       0.0467
     60 H25        35.8479   40.0701   -8.1845 H           1 MOL       0.0467
     61 H26        32.6651   39.7315   -6.2067 H           1 MOL       0.0557
     62 H27        35.9637   37.6725   -7.8688 H           1 MOL       0.0557
     63 H28        31.6693   37.6321   -5.6119 H           1 MOL       0.0599
     64 H29        34.9550   35.5804   -7.2444 H           1 MOL       0.0599
     65 H30        32.8078   35.5445   -6.1085 H           1 MOL       0.0559
@<TRIPOS>BOND
     1    24    25   1
     2    25    28   1
     3    25    26   1
     4    26    27  ar
     5    26    35  ar
     6    28    29   1
     7    29    30  ar
     8    29    31  ar
     9    31    33  ar
    10    33    34  ar
    11    32    34  ar
    12    30    32  ar
    13     2     1   1
    14     3     2   1
    15     2     6   1
    16     3     4  ar
    17     3     5  ar
    18    13     3   1
    19     6     7   1
    20     7     8  ar
    21     7     9  ar
    22     8    10  ar
    23     9    11  ar
    24    10    12  ar
    25    11    12  ar
    26    14    13   1
    27    14    15   1
    28    22    14   1
    29    15    16   1
    30    16    17  ar
    31    16    18  ar
    32    17    19  ar
    33    18    20  ar
    34    19    21  ar
    35    20    21  ar
    36    22    23   2
    37    22    24  am
    38     1    36   1
    39     1    37   1
    40     1    38   1
    41     2    39   1
    42     6    40   1
    43     6    41   1
    44     8    42   1
    45     9    43   1
    46    10    44   1
    47    11    45   1
    48    12    46   1
    49    13    47   1
    50    13    48   1
    51    14    49   1
    52    15    50   1
    53    15    51   1
    54    17    52   1
    55    18    53   1
    56    19    54   1
    57    20    55   1
    58    21    56   1
    59    24    57   1
    60    25    58   1
    61    28    59   1
    62    28    60   1
    63    30    61   1
    64    31    62   1
    65    32    63   1
    66    33    64   1
    67    34    65   1
@<TRIPOS>SUBSTRUCTURE
     1  MOL      2

