@<TRIPOS>MOLECULE
1os0_ligand_093
    65    67
SMALL
GAST_HUCK
****
This file was generated by PARSER (from files_GN.cpp)

@<TRIPOS>ATOM
      1 N          34.8005   41.8157   -5.0981 N.4         1 MOL       0.2351
      2 CA         35.5587   41.3196   -6.2673 C.3         1 MOL       0.0466
      3 P          34.6454   41.4446   -7.6664 P.3         1 MOL       0.0403
      4 O1P        35.1290   40.5502   -8.6973 O.co2       1 MOL      -0.6153
      5 O2P        33.3150   40.9947   -7.3229 O.co2       1 MOL      -0.6153
      6 CB         36.1540   39.8998   -5.9697 C.3         1 MOL       0.0407
      7 CG         35.4168   38.6880   -6.4479 C.ar        1 MOL      -0.0360
      8 CD1        34.0529   38.4868   -6.1325 C.ar        1 MOL      -0.0601
      9 CD2        36.0831   37.6905   -7.2065 C.ar        1 MOL      -0.0601
     10 CE1        33.3711   37.3288   -6.5576 C.ar        1 MOL      -0.0686
     11 CE2        35.4115   36.5267   -7.6173 C.ar        1 MOL      -0.0686
     12 CZ         34.0536   36.3417   -7.2906 C.ar        1 MOL      -0.0687
     13 CM         34.5083   43.0048   -8.2548 C.3         1 MOL       0.0402
     14 CA         33.4705   43.3383   -9.3915 C.3         1 MOL       0.0742
     15 CB         34.1535   43.7318  -10.7444 C.3         1 MOL       0.0021
     16 CG         33.2279   44.3113  -11.7588 C.ar        1 MOL      -0.0405
     17 CD1        32.3275   45.3440  -11.4019 C.ar        1 MOL      -0.0602
     18 CD2        33.2172   43.8452  -13.0947 C.ar        1 MOL      -0.0602
     19 CE1        31.4254   45.8756  -12.3358 C.ar        1 MOL      -0.0686
     20 CE2        32.3162   44.3827  -14.0335 C.ar        1 MOL      -0.0686
     21 CZ         31.4173   45.3926  -13.6553 C.ar        1 MOL      -0.0687
     22 C          32.3940   42.3442   -9.5295 C.2         1 MOL       0.1844
     23 O          31.4792   42.3814   -8.7141 O.2         1 MOL      -0.3964
     24 N          32.4647   41.3435  -10.4102 N.am        1 MOL      -0.2692
     25 CA         31.4972   40.2978  -10.5740 C.3         1 MOL       0.1038
     26 C          31.6303   39.3038   -9.4771 C.2         1 MOL       0.0621
     27 O          32.8331   38.7500   -9.1890 O.co2       1 MOL      -0.5664
     28 CB         31.5641   39.6612  -11.9899 C.3         1 MOL       0.0159
     29 CG         32.7142   38.7524  -12.2754 C.ar        1 MOL      -0.0392
     30 CD1        33.8559   39.2102  -12.9693 C.ar        1 MOL      -0.0602
     31 CD2        32.6678   37.3934  -11.8759 C.ar        1 MOL      -0.0602
     32 CE1        34.9201   38.3405  -13.2661 C.ar        1 MOL      -0.0686
     33 CE2        33.7364   36.5234  -12.1584 C.ar        1 MOL      -0.0686
     34 CZ         34.8641   36.9936  -12.8535 C.ar        1 MOL      -0.0687
     35 OXT        30.5925   39.0108   -8.6601 O.co2       1 MOL      -0.5664
     36 H1         35.3963   41.7595   -4.2701 H           1 MOL       0.2014
     37 H2         33.9709   41.2412   -4.9483 H           1 MOL       0.2014
     38 H3         34.5096   42.7896   -5.2241 H           1 MOL       0.2014
     39 H4         36.4095   42.0073   -6.3881 H           1 MOL       0.1089
     40 H5         36.2829   39.7860   -4.8935 H           1 MOL       0.0499
     41 H6         37.1637   39.8812   -6.3850 H           1 MOL       0.0499
     42 H7         33.5414   39.1865   -5.5953 H           1 MOL       0.0557
     43 H8         37.0658   37.8025   -7.4674 H           1 MOL       0.0557
     44 H9         32.3839   37.1958   -6.3173 H           1 MOL       0.0599
     45 H10        35.9080   35.8010   -8.1402 H           1 MOL       0.0599
     46 H11        33.5674   35.4867   -7.5798 H           1 MOL       0.0559
     47 H12        35.5124   43.2938   -8.5776 H           1 MOL       0.0496
     48 H13        34.2721   43.6428   -7.3947 H           1 MOL       0.0496
     49 H14        32.9988   44.2694   -9.0503 H           1 MOL       0.0576
     50 H15        34.6844   42.8599  -11.1380 H           1 MOL       0.0454
     51 H16        34.9174   44.4836  -10.5465 H           1 MOL       0.0454
     52 H17        32.3060   45.7234  -10.4498 H           1 MOL       0.0557
     53 H18        33.8698   43.1160  -13.3926 H           1 MOL       0.0557
     54 H19        30.7664   46.6037  -12.0441 H           1 MOL       0.0599
     55 H20        32.3087   44.0232  -14.9927 H           1 MOL       0.0599
     56 H21        30.7585   45.7761  -14.3340 H           1 MOL       0.0559
     57 H22        33.2368   41.3148  -10.9862 H           1 MOL       0.1876
     58 H23        30.4959   40.7466  -10.4926 H           1 MOL       0.0749
     59 H24        31.5591   40.4665  -12.7298 H           1 MOL       0.0467
     60 H25        30.6308   39.1111  -12.1486 H           1 MOL       0.0467
     61 H26        33.9116   40.1793  -13.2818 H           1 MOL       0.0557
     62 H27        31.8582   37.0244  -11.3751 H           1 MOL       0.0557
     63 H28        35.7316   38.6778  -13.7894 H           1 MOL       0.0599
     64 H29        33.6985   35.5410  -11.8663 H           1 MOL       0.0599
     65 H30        35.6355   36.3613  -13.0789 H           1 MOL       0.0559
@<TRIPOS>BOND
     1    24    25   1
     2    25    28   1
     3    25    26   1
     4    26    27  ar
     5    26    35  ar
     6    28    29   1
     7    29    30  ar
     8    29    31  ar
     9    31    33  ar
    10    33    34  ar
    11    32    34  ar
    12    30    32  ar
    13     2     1   1
    14     3     2   1
    15     2     6   1
    16     3     4  ar
    17     3     5  ar
    18    13     3   1
    19     6     7   1
    20     7     8  ar
    21     7     9  ar
    22     8    10  ar
    23     9    11  ar
    24    10    12  ar
    25    11    12  ar
    26    14    13   1
    27    14    15   1
    28    22    14   1
    29    15    16   1
    30    16    17  ar
    31    16    18  ar
    32    17    19  ar
    33    18    20  ar
    34    19    21  ar
    35    20    21  ar
    36    22    23   2
    37    22    24  am
    38     1    36   1
    39     1    37   1
    40     1    38   1
    41     2    39   1
    42     6    40   1
    43     6    41   1
    44     8    42   1
    45     9    43   1
    46    10    44   1
    47    11    45   1
    48    12    46   1
    49    13    47   1
    50    13    48   1
    51    14    49   1
    52    15    50   1
    53    15    51   1
    54    17    52   1
    55    18    53   1
    56    19    54   1
    57    20    55   1
    58    21    56   1
    59    24    57   1
    60    25    58   1
    61    28    59   1
    62    28    60   1
    63    30    61   1
    64    31    62   1
    65    32    63   1
    66    33    64   1
    67    34    65   1
@<TRIPOS>SUBSTRUCTURE
     1  MOL      2

