@<TRIPOS>MOLECULE
1os0_ligand_090
    65    67
SMALL
GAST_HUCK
****
This file was generated by PARSER (from files_GN.cpp)

@<TRIPOS>ATOM
      1 N          46.4755   39.2662   -3.1466 N.4         1 MOL       0.2351
      2 CA         45.3962   38.3686   -3.5985 C.3         1 MOL       0.0466
      3 P          44.0328   38.7156   -2.6920 P.3         1 MOL       0.0403
      4 O1P        44.3916   38.6023   -1.2912 O.co2       1 MOL      -0.6153
      5 O2P        43.7482   40.1241   -2.8635 O.co2       1 MOL      -0.6153
      6 CB         45.8695   36.8796   -3.5804 C.3         1 MOL       0.0407
      7 CG         47.2009   36.7033   -4.2323 C.ar        1 MOL      -0.0360
      8 CD1        48.3859   36.6555   -3.4575 C.ar        1 MOL      -0.0601
      9 CD2        47.3159   36.6671   -5.6429 C.ar        1 MOL      -0.0601
     10 CE1        49.6498   36.5811   -4.0733 C.ar        1 MOL      -0.0686
     11 CE2        48.5791   36.5801   -6.2600 C.ar        1 MOL      -0.0686
     12 CZ         49.7468   36.5381   -5.4761 C.ar        1 MOL      -0.0687
     13 CM         42.6762   37.7589   -2.9193 C.3         1 MOL       0.0402
     14 CA         41.2765   38.4870   -2.9243 C.3         1 MOL       0.0742
     15 CB         40.8454   38.9088   -4.3772 C.3         1 MOL       0.0021
     16 CG         39.3950   39.1673   -4.6216 C.ar        1 MOL      -0.0405
     17 CD1        38.6309   39.9750   -3.7444 C.ar        1 MOL      -0.0602
     18 CD2        38.7539   38.6185   -5.7571 C.ar        1 MOL      -0.0602
     19 CE1        37.2516   40.1592   -3.9550 C.ar        1 MOL      -0.0686
     20 CE2        37.3810   38.8175   -5.9821 C.ar        1 MOL      -0.0686
     21 CZ         36.6233   39.5681   -5.0667 C.ar        1 MOL      -0.0687
     22 C          40.2715   37.7031   -2.1944 C.2         1 MOL       0.1844
     23 O          39.7398   38.2059   -1.2060 O.2         1 MOL      -0.3964
     24 N          40.0011   36.4478   -2.5281 N.am        1 MOL      -0.2692
     25 CA         39.1214   35.5484   -1.8166 C.3         1 MOL       0.1038
     26 C          39.5378   35.3659   -0.3998 C.2         1 MOL       0.0621
     27 O          38.6360   34.9200    0.5041 O.co2       1 MOL      -0.5664
     28 CB         39.0261   34.1658   -2.5479 C.3         1 MOL       0.0159
     29 CG         37.9241   34.0527   -3.5499 C.ar        1 MOL      -0.0392
     30 CD1        37.8061   34.9764   -4.6144 C.ar        1 MOL      -0.0602
     31 CD2        36.9814   32.9974   -3.4744 C.ar        1 MOL      -0.0602
     32 CE1        36.7668   34.8649   -5.5587 C.ar        1 MOL      -0.0686
     33 CE2        35.9534   32.8719   -4.4269 C.ar        1 MOL      -0.0686
     34 CZ         35.8385   33.8133   -5.4642 C.ar        1 MOL      -0.0687
     35 OXT        40.7866   35.6385    0.0411 O.co2       1 MOL      -0.5664
     36 H1         47.2668   39.1927   -3.7850 H           1 MOL       0.2014
     37 H2         46.7733   38.9961   -2.2057 H           1 MOL       0.2014
     38 H3         46.1525   40.2400   -3.1396 H           1 MOL       0.2014
     39 H4         45.1677   38.6387   -4.6345 H           1 MOL       0.1089
     40 H5         45.1407   36.2558   -4.1069 H           1 MOL       0.0499
     41 H6         45.9088   36.5096   -2.5510 H           1 MOL       0.0499
     42 H7         48.3414   36.7067   -2.4377 H           1 MOL       0.0557
     43 H8         46.4809   36.7177   -6.2308 H           1 MOL       0.0557
     44 H9         50.4987   36.5634   -3.5024 H           1 MOL       0.0599
     45 H10        48.6536   36.5547   -7.2787 H           1 MOL       0.0599
     46 H11        50.6648   36.4820   -5.9229 H           1 MOL       0.0559
     47 H12        42.6939   36.9971   -2.1325 H           1 MOL       0.0496
     48 H13        42.7971   37.2100   -3.8554 H           1 MOL       0.0496
     49 H14        41.3866   39.4260   -2.3691 H           1 MOL       0.0576
     50 H15        41.1967   38.1529   -5.0876 H           1 MOL       0.0454
     51 H16        41.3743   39.8302   -4.6317 H           1 MOL       0.0454
     52 H17        39.0651   40.4129   -2.9311 H           1 MOL       0.0557
     53 H18        39.2787   38.0635   -6.4371 H           1 MOL       0.0557
     54 H19        36.7020   40.7206   -3.3012 H           1 MOL       0.0599
     55 H20        36.9332   38.4099   -6.8067 H           1 MOL       0.0599
     56 H21        35.6181   39.6893   -5.2153 H           1 MOL       0.0559
     57 H22        40.4509   36.1019   -3.3179 H           1 MOL       0.1876
     58 H23        38.1325   36.0156   -1.7934 H           1 MOL       0.0749
     59 H24        38.9065   33.3724   -1.8035 H           1 MOL       0.0467
     60 H25        39.9730   33.9554   -3.0526 H           1 MOL       0.0467
     61 H26        38.4780   35.7374   -4.7130 H           1 MOL       0.0557
     62 H27        37.0435   32.2966   -2.7334 H           1 MOL       0.0557
     63 H28        36.6869   35.5451   -6.3157 H           1 MOL       0.0599
     64 H29        35.2876   32.0986   -4.3654 H           1 MOL       0.0599
     65 H30        35.0896   33.7259   -6.1535 H           1 MOL       0.0559
@<TRIPOS>BOND
     1    24    25   1
     2    25    28   1
     3    25    26   1
     4    26    27  ar
     5    26    35  ar
     6    28    29   1
     7    29    30  ar
     8    29    31  ar
     9    31    33  ar
    10    33    34  ar
    11    32    34  ar
    12    30    32  ar
    13     2     1   1
    14     3     2   1
    15     2     6   1
    16     3     4  ar
    17     3     5  ar
    18    13     3   1
    19     6     7   1
    20     7     8  ar
    21     7     9  ar
    22     8    10  ar
    23     9    11  ar
    24    10    12  ar
    25    11    12  ar
    26    14    13   1
    27    14    15   1
    28    22    14   1
    29    15    16   1
    30    16    17  ar
    31    16    18  ar
    32    17    19  ar
    33    18    20  ar
    34    19    21  ar
    35    20    21  ar
    36    22    23   2
    37    22    24  am
    38     1    36   1
    39     1    37   1
    40     1    38   1
    41     2    39   1
    42     6    40   1
    43     6    41   1
    44     8    42   1
    45     9    43   1
    46    10    44   1
    47    11    45   1
    48    12    46   1
    49    13    47   1
    50    13    48   1
    51    14    49   1
    52    15    50   1
    53    15    51   1
    54    17    52   1
    55    18    53   1
    56    19    54   1
    57    20    55   1
    58    21    56   1
    59    24    57   1
    60    25    58   1
    61    28    59   1
    62    28    60   1
    63    30    61   1
    64    31    62   1
    65    32    63   1
    66    33    64   1
    67    34    65   1
@<TRIPOS>SUBSTRUCTURE
     1  MOL      2

