@<TRIPOS>MOLECULE
1os0_ligand_014
    65    67
SMALL
GAST_HUCK
****
This file was generated by PARSER (from files_GN.cpp)

@<TRIPOS>ATOM
      1 N          34.0641   42.8093   -1.5100 N.4         1 MOL       0.2351
      2 CA         35.4792   43.1297   -1.2498 C.3         1 MOL       0.0466
      3 P          36.3971   42.8159   -2.6173 P.3         1 MOL       0.0403
      4 O1P        35.9582   43.6712   -3.6885 O.co2       1 MOL      -0.6153
      5 O2P        37.7699   43.2037   -2.4008 O.co2       1 MOL      -0.6153
      6 CB         35.8913   42.4018    0.0665 C.3         1 MOL       0.0407
      7 CG         37.2594   42.6424    0.6112 C.ar        1 MOL      -0.0360
      8 CD1        37.8487   43.9313    0.6307 C.ar        1 MOL      -0.0601
      9 CD2        37.9631   41.5794    1.2279 C.ar        1 MOL      -0.0601
     10 CE1        39.1290   44.1313    1.1796 C.ar        1 MOL      -0.0686
     11 CE2        39.2199   41.7884    1.8240 C.ar        1 MOL      -0.0686
     12 CZ         39.8166   43.0595    1.7709 C.ar        1 MOL      -0.0687
     13 CM         36.3735   41.2343   -3.1608 C.3         1 MOL       0.0402
     14 CA         37.1710   40.9311   -4.4794 C.3         1 MOL       0.0742
     15 CB         37.5246   39.4029   -4.6324 C.3         1 MOL       0.0021
     16 CG         38.9808   39.0991   -4.4894 C.ar        1 MOL      -0.0405
     17 CD1        39.6561   39.3969   -3.2808 C.ar        1 MOL      -0.0602
     18 CD2        39.7161   38.5222   -5.5515 C.ar        1 MOL      -0.0602
     19 CE1        41.0386   39.1640   -3.1556 C.ar        1 MOL      -0.0686
     20 CE2        41.0964   38.2790   -5.4213 C.ar        1 MOL      -0.0686
     21 CZ         41.7584   38.6092   -4.2257 C.ar        1 MOL      -0.0687
     22 C          36.4826   41.4414   -5.6696 C.2         1 MOL       0.1844
     23 O          36.9446   42.4392   -6.2285 O.2         1 MOL      -0.3964
     24 N          35.4158   40.8138   -6.1626 N.am        1 MOL      -0.2692
     25 CA         34.7812   41.0496   -7.4357 C.3         1 MOL       0.1038
     26 C          34.2370   42.4370   -7.5305 C.2         1 MOL       0.0621
     27 O          35.0559   43.5043   -7.3721 O.co2       1 MOL      -0.5664
     28 CB         33.6946   39.9611   -7.7364 C.3         1 MOL       0.0159
     29 CG         34.0052   38.5324   -7.4296 C.ar        1 MOL      -0.0392
     30 CD1        35.2761   37.9591   -7.6941 C.ar        1 MOL      -0.0602
     31 CD2        32.9833   37.6860   -6.9292 C.ar        1 MOL      -0.0602
     32 CE1        35.5233   36.5995   -7.4206 C.ar        1 MOL      -0.0686
     33 CE2        33.2236   36.3255   -6.6792 C.ar        1 MOL      -0.0686
     34 CZ         34.4989   35.7821   -6.9131 C.ar        1 MOL      -0.0687
     35 OXT        32.9636   42.7071   -7.9056 O.co2       1 MOL      -0.5664
     36 H1         33.5082   43.0109   -0.6781 H           1 MOL       0.2014
     37 H2         33.9640   41.8209   -1.7461 H           1 MOL       0.2014
     38 H3         33.7195   43.3800   -2.2774 H           1 MOL       0.2014
     39 H4         35.5077   44.2065   -1.0761 H           1 MOL       0.1089
     40 H5         35.7260   41.3285   -0.0796 H           1 MOL       0.0499
     41 H6         35.2022   42.7103    0.8554 H           1 MOL       0.0499
     42 H7         37.3606   44.7384    0.2388 H           1 MOL       0.0557
     43 H8         37.5523   40.6456    1.2634 H           1 MOL       0.0557
     44 H9         39.5474   45.0629    1.1640 H           1 MOL       0.0599
     45 H10        39.7027   41.0156    2.2885 H           1 MOL       0.0599
     46 H11        40.7394   43.2044    2.1794 H           1 MOL       0.0559
     47 H12        35.3335   40.9194   -3.2756 H           1 MOL       0.0496
     48 H13        36.7986   40.6398   -2.3496 H           1 MOL       0.0496
     49 H14        38.1198   41.4748   -4.4052 H           1 MOL       0.0576
     50 H15        37.1697   39.0137   -5.5910 H           1 MOL       0.0454
     51 H16        36.9973   38.8174   -3.8778 H           1 MOL       0.0454
     52 H17        39.1501   39.8067   -2.4912 H           1 MOL       0.0557
     53 H18        39.2537   38.2770   -6.4302 H           1 MOL       0.0557
     54 H19        41.5214   39.4141   -2.2911 H           1 MOL       0.0599
     55 H20        41.6180   37.8739   -6.1998 H           1 MOL       0.0599
     56 H21        42.7630   38.4480   -4.1375 H           1 MOL       0.0559
     57 H22        35.1001   40.0383   -5.6733 H           1 MOL       0.1876
     58 H23        35.5376   40.9501   -8.2239 H           1 MOL       0.0749
     59 H24        33.4476   40.0031   -8.8036 H           1 MOL       0.0467
     60 H25        32.7886   40.2401   -7.1890 H           1 MOL       0.0467
     61 H26        36.0320   38.5272   -8.0821 H           1 MOL       0.0557
     62 H27        32.0399   38.0540   -6.7672 H           1 MOL       0.0557
     63 H28        36.4478   36.2012   -7.6019 H           1 MOL       0.0599
     64 H29        32.4667   35.7297   -6.3372 H           1 MOL       0.0599
     65 H30        34.6716   34.7943   -6.7290 H           1 MOL       0.0559
@<TRIPOS>BOND
     1    24    25   1
     2    25    28   1
     3    25    26   1
     4    26    27  ar
     5    26    35  ar
     6    28    29   1
     7    29    30  ar
     8    29    31  ar
     9    31    33  ar
    10    33    34  ar
    11    32    34  ar
    12    30    32  ar
    13     2     1   1
    14     3     2   1
    15     2     6   1
    16     3     4  ar
    17     3     5  ar
    18    13     3   1
    19     6     7   1
    20     7     8  ar
    21     7     9  ar
    22     8    10  ar
    23     9    11  ar
    24    10    12  ar
    25    11    12  ar
    26    14    13   1
    27    14    15   1
    28    22    14   1
    29    15    16   1
    30    16    17  ar
    31    16    18  ar
    32    17    19  ar
    33    18    20  ar
    34    19    21  ar
    35    20    21  ar
    36    22    23   2
    37    22    24  am
    38     1    36   1
    39     1    37   1
    40     1    38   1
    41     2    39   1
    42     6    40   1
    43     6    41   1
    44     8    42   1
    45     9    43   1
    46    10    44   1
    47    11    45   1
    48    12    46   1
    49    13    47   1
    50    13    48   1
    51    14    49   1
    52    15    50   1
    53    15    51   1
    54    17    52   1
    55    18    53   1
    56    19    54   1
    57    20    55   1
    58    21    56   1
    59    24    57   1
    60    25    58   1
    61    28    59   1
    62    28    60   1
    63    30    61   1
    64    31    62   1
    65    32    63   1
    66    33    64   1
    67    34    65   1
@<TRIPOS>SUBSTRUCTURE
     1  MOL      2

