@<TRIPOS>MOLECULE
1os0_ligand_069
    65    67
SMALL
GAST_HUCK
****
This file was generated by PARSER (from files_GN.cpp)

@<TRIPOS>ATOM
      1 N          33.6871   42.5489   -6.0329 N.4         1 MOL       0.2351
      2 CA         34.3649   42.2087   -7.3031 C.3         1 MOL       0.0466
      3 P          33.2206   41.9951   -8.5058 P.3         1 MOL       0.0403
      4 O1P        32.5687   40.7231   -8.2878 O.co2       1 MOL      -0.6153
      5 O2P        32.1636   42.9658   -8.3217 O.co2       1 MOL      -0.6153
      6 CB         35.3186   40.9889   -7.0998 C.3         1 MOL       0.0407
      7 CG         36.2514   41.1456   -5.9453 C.ar        1 MOL      -0.0360
      8 CD1        37.1254   42.2557   -5.8813 C.ar        1 MOL      -0.0601
      9 CD2        36.2667   40.2152   -4.8762 C.ar        1 MOL      -0.0601
     10 CE1        37.9657   42.4514   -4.7723 C.ar        1 MOL      -0.0686
     11 CE2        37.1110   40.4064   -3.7680 C.ar        1 MOL      -0.0686
     12 CZ         37.9552   41.5300   -3.7100 C.ar        1 MOL      -0.0687
     13 CM         33.7947   41.9765  -10.0805 C.3         1 MOL       0.0402
     14 CA         32.7688   42.3947  -11.2084 C.3         1 MOL       0.0742
     15 CB         33.0686   43.8518  -11.7021 C.3         1 MOL       0.0021
     16 CG         32.1024   44.4024  -12.6940 C.ar        1 MOL      -0.0405
     17 CD1        30.7594   44.6577  -12.3215 C.ar        1 MOL      -0.0602
     18 CD2        32.5052   44.6944  -14.0207 C.ar        1 MOL      -0.0602
     19 CE1        29.8453   45.1861  -13.2513 C.ar        1 MOL      -0.0686
     20 CE2        31.5897   45.2259  -14.9493 C.ar        1 MOL      -0.0686
     21 CZ         30.2586   45.4675  -14.5648 C.ar        1 MOL      -0.0687
     22 C          32.7245   41.4756  -12.3530 C.2         1 MOL       0.1844
     23 O          33.7042   40.7831  -12.5851 O.2         1 MOL      -0.3964
     24 N          31.6595   41.4611  -13.1587 N.am        1 MOL      -0.2692
     25 CA         31.3755   40.6799  -14.3381 C.3         1 MOL       0.1038
     26 C          32.5511   40.1074  -15.0525 C.2         1 MOL       0.0621
     27 O          33.6649   40.8458  -15.2548 O.co2       1 MOL      -0.5664
     28 CB         30.5381   41.5062  -15.3676 C.3         1 MOL       0.0159
     29 CG         29.1246   41.8816  -15.0677 C.ar        1 MOL      -0.0392
     30 CD1        28.6193   43.0800  -15.6349 C.ar        1 MOL      -0.0602
     31 CD2        28.2272   41.0443  -14.3639 C.ar        1 MOL      -0.0602
     32 CE1        27.2751   43.4550  -15.4701 C.ar        1 MOL      -0.0686
     33 CE2        26.8762   41.4136  -14.2036 C.ar        1 MOL      -0.0686
     34 CZ         26.4012   42.6213  -14.7511 C.ar        1 MOL      -0.0687
     35 OXT        32.5278   38.8302  -15.5226 O.co2       1 MOL      -0.5664
     36 H1         34.3841   42.7495   -5.3152 H           1 MOL       0.2014
     37 H2         33.1099   41.7669   -5.7210 H           1 MOL       0.2014
     38 H3         33.1020   43.3755   -6.1533 H           1 MOL       0.2014
     39 H4         34.9620   43.0814   -7.5858 H           1 MOL       0.1089
     40 H5         35.9240   40.8432   -8.0004 H           1 MOL       0.0499
     41 H6         34.7167   40.0847   -6.9706 H           1 MOL       0.0499
     42 H7         37.1572   42.9295   -6.6474 H           1 MOL       0.0557
     43 H8         35.6539   39.3972   -4.8952 H           1 MOL       0.0557
     44 H9         38.5815   43.2668   -4.7400 H           1 MOL       0.0599
     45 H10        37.1084   39.7333   -2.9977 H           1 MOL       0.0599
     46 H11        38.5594   41.6753   -2.8977 H           1 MOL       0.0559
     47 H12        34.1592   40.9614  -10.2632 H           1 MOL       0.0496
     48 H13        34.6759   42.6241  -10.1216 H           1 MOL       0.0496
     49 H14        31.7654   42.3843  -10.7647 H           1 MOL       0.0576
     50 H15        34.0819   43.8727  -12.1140 H           1 MOL       0.0454
     51 H16        33.0751   44.5328  -10.8454 H           1 MOL       0.0454
     52 H17        30.4436   44.4669  -11.3687 H           1 MOL       0.0557
     53 H18        33.4656   44.5181  -14.3226 H           1 MOL       0.0557
     54 H19        28.8767   45.3669  -12.9711 H           1 MOL       0.0599
     55 H20        31.8909   45.4328  -15.9038 H           1 MOL       0.0599
     56 H21        29.5954   45.8535  -15.2395 H           1 MOL       0.0559
     57 H22        30.9307   42.0394  -12.8831 H           1 MOL       0.1876
     58 H23        30.7599   39.8304  -14.0078 H           1 MOL       0.0749
     59 H24        30.4995   40.9594  -16.3175 H           1 MOL       0.0467
     60 H25        31.1065   42.4288  -15.5578 H           1 MOL       0.0467
     61 H26        29.2269   43.6949  -16.1894 H           1 MOL       0.0557
     62 H27        28.5353   40.1506  -13.9830 H           1 MOL       0.0557
     63 H28        26.9246   44.3186  -15.8849 H           1 MOL       0.0599
     64 H29        26.2373   40.7929  -13.7011 H           1 MOL       0.0599
     65 H30        25.4118   42.8787  -14.6438 H           1 MOL       0.0559
@<TRIPOS>BOND
     1    24    25   1
     2    25    28   1
     3    25    26   1
     4    26    27  ar
     5    26    35  ar
     6    28    29   1
     7    29    30  ar
     8    29    31  ar
     9    31    33  ar
    10    33    34  ar
    11    32    34  ar
    12    30    32  ar
    13     2     1   1
    14     3     2   1
    15     2     6   1
    16     3     4  ar
    17     3     5  ar
    18    13     3   1
    19     6     7   1
    20     7     8  ar
    21     7     9  ar
    22     8    10  ar
    23     9    11  ar
    24    10    12  ar
    25    11    12  ar
    26    14    13   1
    27    14    15   1
    28    22    14   1
    29    15    16   1
    30    16    17  ar
    31    16    18  ar
    32    17    19  ar
    33    18    20  ar
    34    19    21  ar
    35    20    21  ar
    36    22    23   2
    37    22    24  am
    38     1    36   1
    39     1    37   1
    40     1    38   1
    41     2    39   1
    42     6    40   1
    43     6    41   1
    44     8    42   1
    45     9    43   1
    46    10    44   1
    47    11    45   1
    48    12    46   1
    49    13    47   1
    50    13    48   1
    51    14    49   1
    52    15    50   1
    53    15    51   1
    54    17    52   1
    55    18    53   1
    56    19    54   1
    57    20    55   1
    58    21    56   1
    59    24    57   1
    60    25    58   1
    61    28    59   1
    62    28    60   1
    63    30    61   1
    64    31    62   1
    65    32    63   1
    66    33    64   1
    67    34    65   1
@<TRIPOS>SUBSTRUCTURE
     1  MOL      2

