@<TRIPOS>MOLECULE
1os0_ligand_062
    65    67
SMALL
GAST_HUCK
****
This file was generated by PARSER (from files_GN.cpp)

@<TRIPOS>ATOM
      1 N          33.8447   42.5933   -5.9239 N.4         1 MOL       0.2351
      2 CA         34.4368   42.2405   -7.2372 C.3         1 MOL       0.0466
      3 P          33.2268   41.7485   -8.2864 P.3         1 MOL       0.0403
      4 O1P        32.6927   40.4879   -7.8285 O.co2       1 MOL      -0.6153
      5 O2P        32.1285   42.6786   -8.1749 O.co2       1 MOL      -0.6153
      6 CB         35.6887   41.3086   -7.0586 C.3         1 MOL       0.0407
      7 CG         35.5724   39.8675   -7.4389 C.ar        1 MOL      -0.0360
      8 CD1        34.9148   38.9440   -6.5933 C.ar        1 MOL      -0.0601
      9 CD2        36.1047   39.3910   -8.6661 C.ar        1 MOL      -0.0601
     10 CE1        34.7482   37.5964   -6.9796 C.ar        1 MOL      -0.0686
     11 CE2        35.9600   38.0387   -9.0439 C.ar        1 MOL      -0.0686
     12 CZ         35.2814   37.1440   -8.2011 C.ar        1 MOL      -0.0687
     13 CM         33.7139   41.5968   -9.8812 C.3         1 MOL       0.0402
     14 CA         32.5519   41.4296  -10.9332 C.3         1 MOL       0.0742
     15 CB         33.0573   41.4227  -12.4242 C.3         1 MOL       0.0021
     16 CG         33.4178   42.7110  -13.0960 C.ar        1 MOL      -0.0405
     17 CD1        33.9043   43.8589  -12.4106 C.ar        1 MOL      -0.0602
     18 CD2        33.2512   42.8053  -14.5098 C.ar        1 MOL      -0.0602
     19 CE1        34.2448   45.0374  -13.1018 C.ar        1 MOL      -0.0686
     20 CE2        33.5606   43.9975  -15.1967 C.ar        1 MOL      -0.0686
     21 CZ         34.0758   45.1113  -14.4995 C.ar        1 MOL      -0.0687
     22 C          31.7668   40.2421  -10.6503 C.2         1 MOL       0.1844
     23 O          30.5976   40.3693  -10.2756 O.2         1 MOL      -0.3964
     24 N          32.3183   39.0288  -10.6619 N.am        1 MOL      -0.2692
     25 CA         31.6661   37.7875  -10.3690 C.3         1 MOL       0.1038
     26 C          31.2195   37.7288   -8.9594 C.2         1 MOL       0.0621
     27 O          29.9800   38.1282   -8.6056 O.co2       1 MOL      -0.5664
     28 CB         32.5971   36.5769  -10.6819 C.3         1 MOL       0.0159
     29 CG         33.0431   36.5312  -12.1020 C.ar        1 MOL      -0.0392
     30 CD1        32.2328   35.9171  -13.0821 C.ar        1 MOL      -0.0602
     31 CD2        34.2658   37.1192  -12.4999 C.ar        1 MOL      -0.0602
     32 CE1        32.6144   35.9195  -14.4393 C.ar        1 MOL      -0.0686
     33 CE2        34.6541   37.1212  -13.8576 C.ar        1 MOL      -0.0686
     34 CZ         33.8214   36.5346  -14.8255 C.ar        1 MOL      -0.0687
     35 OXT        32.0559   37.3014   -7.9809 O.co2       1 MOL      -0.5664
     36 H1         34.5910   42.8259   -5.2564 H           1 MOL       0.2014
     37 H2         33.2915   41.8121   -5.5517 H           1 MOL       0.2014
     38 H3         33.2346   43.4131   -6.0311 H           1 MOL       0.2014
     39 H4         34.8268   43.1882   -7.6294 H           1 MOL       0.1089
     40 H5         36.0147   41.3313   -6.0101 H           1 MOL       0.0499
     41 H6         36.5189   41.7575   -7.6224 H           1 MOL       0.0499
     42 H7         34.5213   39.2482   -5.7007 H           1 MOL       0.0557
     43 H8         36.5889   40.0221   -9.3050 H           1 MOL       0.0557
     44 H9         34.2397   36.9477   -6.3755 H           1 MOL       0.0599
     45 H10        36.3552   37.7083   -9.9285 H           1 MOL       0.0599
     46 H11        35.1738   36.1648   -8.4743 H           1 MOL       0.0559
     47 H12        34.3817   40.7308   -9.9618 H           1 MOL       0.0496
     48 H13        34.3031   42.4907  -10.1186 H           1 MOL       0.0496
     49 H14        31.8880   42.2946  -10.8514 H           1 MOL       0.0576
     50 H15        32.2604   40.9802  -13.0339 H           1 MOL       0.0454
     51 H16        33.9185   40.7504  -12.5091 H           1 MOL       0.0454
     52 H17        34.0195   43.8633  -11.3995 H           1 MOL       0.0557
     53 H18        32.8954   42.0066  -15.0455 H           1 MOL       0.0557
     54 H19        34.5922   45.8506  -12.5816 H           1 MOL       0.0599
     55 H20        33.4181   44.0577  -16.2145 H           1 MOL       0.0599
     56 H21        34.3104   45.9693  -15.0106 H           1 MOL       0.0559
     57 H22        33.2521   38.9853  -10.9374 H           1 MOL       0.1876
     58 H23        30.7817   37.6995  -11.0102 H           1 MOL       0.0749
     59 H24        32.0725   35.6402  -10.4684 H           1 MOL       0.0467
     60 H25        33.4664   36.6168  -10.0191 H           1 MOL       0.0467
     61 H26        31.3554   35.4593  -12.8211 H           1 MOL       0.0557
     62 H27        34.8853   37.5587  -11.8160 H           1 MOL       0.0557
     63 H28        32.0116   35.4854  -15.1430 H           1 MOL       0.0599
     64 H29        35.5356   37.5616  -14.1379 H           1 MOL       0.0599
     65 H30        34.0908   36.5545  -15.8142 H           1 MOL       0.0559
@<TRIPOS>BOND
     1    24    25   1
     2    25    28   1
     3    25    26   1
     4    26    27  ar
     5    26    35  ar
     6    28    29   1
     7    29    30  ar
     8    29    31  ar
     9    31    33  ar
    10    33    34  ar
    11    32    34  ar
    12    30    32  ar
    13     2     1   1
    14     3     2   1
    15     2     6   1
    16     3     4  ar
    17     3     5  ar
    18    13     3   1
    19     6     7   1
    20     7     8  ar
    21     7     9  ar
    22     8    10  ar
    23     9    11  ar
    24    10    12  ar
    25    11    12  ar
    26    14    13   1
    27    14    15   1
    28    22    14   1
    29    15    16   1
    30    16    17  ar
    31    16    18  ar
    32    17    19  ar
    33    18    20  ar
    34    19    21  ar
    35    20    21  ar
    36    22    23   2
    37    22    24  am
    38     1    36   1
    39     1    37   1
    40     1    38   1
    41     2    39   1
    42     6    40   1
    43     6    41   1
    44     8    42   1
    45     9    43   1
    46    10    44   1
    47    11    45   1
    48    12    46   1
    49    13    47   1
    50    13    48   1
    51    14    49   1
    52    15    50   1
    53    15    51   1
    54    17    52   1
    55    18    53   1
    56    19    54   1
    57    20    55   1
    58    21    56   1
    59    24    57   1
    60    25    58   1
    61    28    59   1
    62    28    60   1
    63    30    61   1
    64    31    62   1
    65    32    63   1
    66    33    64   1
    67    34    65   1
@<TRIPOS>SUBSTRUCTURE
     1  MOL      2

