@<TRIPOS>MOLECULE
1os0_ligand_047
    65    67
SMALL
GAST_HUCK
****
This file was generated by PARSER (from files_GN.cpp)

@<TRIPOS>ATOM
      1 N          28.6237   40.4515  -10.5312 N.4         1 MOL       0.2351
      2 CA         29.8826   40.0105   -9.8952 C.3         1 MOL       0.0466
      3 P          31.2059   40.4294  -10.8359 P.3         1 MOL       0.0403
      4 O1P        32.3814   39.7268  -10.3852 O.co2       1 MOL      -0.6153
      5 O2P        30.9840   39.9410  -12.1743 O.co2       1 MOL      -0.6153
      6 CB         29.7931   38.5049   -9.4881 C.3         1 MOL       0.0407
      7 CG         29.4687   37.5510  -10.5898 C.ar        1 MOL      -0.0360
      8 CD1        28.1385   37.1110  -10.7929 C.ar        1 MOL      -0.0601
      9 CD2        30.4808   37.0456  -11.4416 C.ar        1 MOL      -0.0601
     10 CE1        27.8290   36.2040  -11.8237 C.ar        1 MOL      -0.0686
     11 CE2        30.1696   36.1563  -12.4865 C.ar        1 MOL      -0.0686
     12 CZ         28.8430   35.7320  -12.6750 C.ar        1 MOL      -0.0687
     13 CM         31.4779   42.0852  -10.9002 C.3         1 MOL       0.0402
     14 CA         32.8339   42.6465  -10.3433 C.3         1 MOL       0.0742
     15 CB         33.0003   44.2000  -10.5198 C.3         1 MOL       0.0021
     16 CG         32.8429   44.7051  -11.9181 C.ar        1 MOL      -0.0405
     17 CD1        31.5560   45.0046  -12.4289 C.ar        1 MOL      -0.0602
     18 CD2        33.9590   44.8921  -12.7702 C.ar        1 MOL      -0.0602
     19 CE1        31.3827   45.4296  -13.7586 C.ar        1 MOL      -0.0686
     20 CE2        33.7904   45.3381  -14.0962 C.ar        1 MOL      -0.0686
     21 CZ         32.5011   45.6017  -14.5920 C.ar        1 MOL      -0.0687
     22 C          33.0426   42.2895   -8.9329 C.2         1 MOL       0.1844
     23 O          32.2099   42.6444   -8.1045 O.2         1 MOL      -0.3964
     24 N          34.1350   41.6238   -8.5701 N.am        1 MOL      -0.2692
     25 CA         34.5515   41.2407   -7.2462 C.3         1 MOL       0.1038
     26 C          35.4917   42.2704   -6.7429 C.2         1 MOL       0.0621
     27 O          36.2219   42.0118   -5.6346 O.co2       1 MOL      -0.5664
     28 CB         35.2002   39.8121   -7.3056 C.3         1 MOL       0.0159
     29 CG         34.2271   38.6842   -7.2529 C.ar        1 MOL      -0.0392
     30 CD1        33.4744   38.4737   -6.0732 C.ar        1 MOL      -0.0602
     31 CD2        34.0914   37.7542   -8.3127 C.ar        1 MOL      -0.0602
     32 CE1        32.5711   37.4014   -5.9726 C.ar        1 MOL      -0.0686
     33 CE2        33.2011   36.6676   -8.2067 C.ar        1 MOL      -0.0686
     34 CZ         32.4318   36.4997   -7.0416 C.ar        1 MOL      -0.0687
     35 OXT        35.1511   43.5703   -6.8896 O.co2       1 MOL      -0.5664
     36 H1         27.8285   40.1804   -9.9468 H           1 MOL       0.2014
     37 H2         28.5221   40.0190  -11.4520 H           1 MOL       0.2014
     38 H3         28.6246   41.4687  -10.6284 H           1 MOL       0.2014
     39 H4         29.9725   40.5831   -8.9690 H           1 MOL       0.1089
     40 H5         29.0292   38.4242   -8.7089 H           1 MOL       0.0499
     41 H6         30.7232   38.1935   -9.0075 H           1 MOL       0.0499
     42 H7         27.3847   37.4472  -10.1885 H           1 MOL       0.0557
     43 H8         31.4553   37.3248  -11.3119 H           1 MOL       0.0557
     44 H9         26.8655   35.8874  -11.9532 H           1 MOL       0.0599
     45 H10        30.9087   35.8128  -13.1038 H           1 MOL       0.0599
     46 H11        28.6177   35.0759  -13.4259 H           1 MOL       0.0559
     47 H12        30.6604   42.5921  -10.3873 H           1 MOL       0.0496
     48 H13        31.4047   42.3581  -11.9534 H           1 MOL       0.0496
     49 H14        33.6267   42.1925  -10.9491 H           1 MOL       0.0576
     50 H15        33.9969   44.4778  -10.1581 H           1 MOL       0.0454
     51 H16        32.2921   44.7328   -9.8766 H           1 MOL       0.0454
     52 H17        30.7284   44.8901  -11.8383 H           1 MOL       0.0557
     53 H18        34.9034   44.7024  -12.4299 H           1 MOL       0.0557
     54 H19        30.4432   45.6097  -14.1193 H           1 MOL       0.0599
     55 H20        34.6036   45.4680  -14.7023 H           1 MOL       0.0599
     56 H21        32.3752   45.9220  -15.5553 H           1 MOL       0.0559
     57 H22        34.7762   41.4447   -9.2757 H           1 MOL       0.1876
     58 H23        33.7060   41.2326   -6.5517 H           1 MOL       0.0749
     59 H24        35.8804   39.6621   -6.4618 H           1 MOL       0.0467
     60 H25        35.8184   39.7409   -8.2059 H           1 MOL       0.0467
     61 H26        33.5971   39.0910   -5.2663 H           1 MOL       0.0557
     62 H27        34.6521   37.8503   -9.1633 H           1 MOL       0.0557
     63 H28        32.0254   37.2782   -5.1172 H           1 MOL       0.0599
     64 H29        33.1135   35.9991   -8.9745 H           1 MOL       0.0599
     65 H30        31.7762   35.7186   -6.9692 H           1 MOL       0.0559
@<TRIPOS>BOND
     1    24    25   1
     2    25    28   1
     3    25    26   1
     4    26    27  ar
     5    26    35  ar
     6    28    29   1
     7    29    30  ar
     8    29    31  ar
     9    31    33  ar
    10    33    34  ar
    11    32    34  ar
    12    30    32  ar
    13     2     1   1
    14     3     2   1
    15     2     6   1
    16     3     4  ar
    17     3     5  ar
    18    13     3   1
    19     6     7   1
    20     7     8  ar
    21     7     9  ar
    22     8    10  ar
    23     9    11  ar
    24    10    12  ar
    25    11    12  ar
    26    14    13   1
    27    14    15   1
    28    22    14   1
    29    15    16   1
    30    16    17  ar
    31    16    18  ar
    32    17    19  ar
    33    18    20  ar
    34    19    21  ar
    35    20    21  ar
    36    22    23   2
    37    22    24  am
    38     1    36   1
    39     1    37   1
    40     1    38   1
    41     2    39   1
    42     6    40   1
    43     6    41   1
    44     8    42   1
    45     9    43   1
    46    10    44   1
    47    11    45   1
    48    12    46   1
    49    13    47   1
    50    13    48   1
    51    14    49   1
    52    15    50   1
    53    15    51   1
    54    17    52   1
    55    18    53   1
    56    19    54   1
    57    20    55   1
    58    21    56   1
    59    24    57   1
    60    25    58   1
    61    28    59   1
    62    28    60   1
    63    30    61   1
    64    31    62   1
    65    32    63   1
    66    33    64   1
    67    34    65   1
@<TRIPOS>SUBSTRUCTURE
     1  MOL      2

