@<TRIPOS>MOLECULE
1os0_ligand_092
    65    67
SMALL
GAST_HUCK
****
This file was generated by PARSER (from files_GN.cpp)

@<TRIPOS>ATOM
      1 N          38.4681   36.3017  -10.6356 N.4         1 MOL       0.2351
      2 CA         37.2487   36.5960   -9.8610 C.3         1 MOL       0.0466
      3 P          36.7431   38.1742  -10.1406 P.3         1 MOL       0.0403
      4 O1P        36.2662   38.8379   -8.9529 O.co2       1 MOL      -0.6153
      5 O2P        37.8542   38.9907  -10.5562 O.co2       1 MOL      -0.6153
      6 CB         37.3815   36.1686   -8.3654 C.3         1 MOL       0.0407
      7 CG         38.3743   36.8922   -7.5145 C.ar        1 MOL      -0.0360
      8 CD1        39.7603   36.6321   -7.6364 C.ar        1 MOL      -0.0601
      9 CD2        37.9506   37.7895   -6.5026 C.ar        1 MOL      -0.0601
     10 CE1        40.6952   37.2810   -6.8058 C.ar        1 MOL      -0.0686
     11 CE2        38.8817   38.4321   -5.6648 C.ar        1 MOL      -0.0686
     12 CZ         40.2559   38.1827   -5.8202 C.ar        1 MOL      -0.0687
     13 CM         35.5574   38.2861  -11.3168 C.3         1 MOL       0.0402
     14 CA         34.0816   37.9738  -10.8373 C.3         1 MOL       0.0742
     15 CB         33.0256   39.0608  -11.2435 C.3         1 MOL       0.0021
     16 CG         33.4126   40.4710  -10.9435 C.ar        1 MOL      -0.0405
     17 CD1        33.5769   41.4131  -11.9885 C.ar        1 MOL      -0.0602
     18 CD2        33.6641   40.8871   -9.6147 C.ar        1 MOL      -0.0602
     19 CE1        33.9861   42.7305  -11.7138 C.ar        1 MOL      -0.0686
     20 CE2        34.0798   42.2035   -9.3402 C.ar        1 MOL      -0.0686
     21 CZ         34.2364   43.1268  -10.3890 C.ar        1 MOL      -0.0687
     22 C          33.6293   36.6537  -11.2844 C.2         1 MOL       0.1844
     23 O          33.2887   35.8131  -10.4609 O.2         1 MOL      -0.3964
     24 N          33.5834   36.3989  -12.5862 N.am        1 MOL      -0.2692
     25 CA         33.1392   35.2062  -13.2425 C.3         1 MOL       0.1038
     26 C          34.3289   34.5439  -13.8195 C.2         1 MOL       0.0621
     27 O          34.6103   33.2552  -13.5235 O.co2       1 MOL      -0.5664
     28 CB         32.1085   35.5736  -14.3492 C.3         1 MOL       0.0159
     29 CG         30.8513   36.1695  -13.8125 C.ar        1 MOL      -0.0392
     30 CD1        29.8754   35.3514  -13.1946 C.ar        1 MOL      -0.0602
     31 CD2        30.5983   37.5582  -13.9210 C.ar        1 MOL      -0.0602
     32 CE1        28.6782   35.9057  -12.7033 C.ar        1 MOL      -0.0686
     33 CE2        29.4064   38.1147  -13.4198 C.ar        1 MOL      -0.0686
     34 CZ         28.4450   37.2878  -12.8129 C.ar        1 MOL      -0.0687
     35 OXT        35.1933   35.2222  -14.6089 O.co2       1 MOL      -0.5664
     36 H1         38.7005   35.3112  -10.5547 H           1 MOL       0.2014
     37 H2         39.2520   36.8576  -10.2910 H           1 MOL       0.2014
     38 H3         38.3095   36.5281  -11.6196 H           1 MOL       0.2014
     39 H4         36.4835   35.9422  -10.2862 H           1 MOL       0.1089
     40 H5         37.6310   35.1044   -8.3371 H           1 MOL       0.0499
     41 H6         36.3872   36.2452   -7.9150 H           1 MOL       0.0499
     42 H7         40.1001   35.9520   -8.3198 H           1 MOL       0.0557
     43 H8         36.9560   37.9819   -6.3640 H           1 MOL       0.0557
     44 H9         41.6951   37.0887   -6.9110 H           1 MOL       0.0599
     45 H10        38.5591   39.0750   -4.9374 H           1 MOL       0.0599
     46 H11        40.9338   38.6498   -5.2124 H           1 MOL       0.0559
     47 H12        35.8573   37.6446  -12.1493 H           1 MOL       0.0496
     48 H13        35.6116   39.2975  -11.7121 H           1 MOL       0.0496
     49 H14        34.0557   37.9625   -9.7422 H           1 MOL       0.0576
     50 H15        32.0922   38.8561  -10.7105 H           1 MOL       0.0454
     51 H16        32.8027   38.9596  -12.3084 H           1 MOL       0.0454
     52 H17        33.4158   41.1422  -12.9616 H           1 MOL       0.0557
     53 H18        33.5548   40.2320   -8.8372 H           1 MOL       0.0557
     54 H19        34.1065   43.3976  -12.4788 H           1 MOL       0.0599
     55 H20        34.2684   42.4899   -8.3773 H           1 MOL       0.0599
     56 H21        34.5334   44.0847  -10.1886 H           1 MOL       0.0559
     57 H22        33.9030   37.1059  -13.1703 H           1 MOL       0.1876
     58 H23        32.6645   34.5131  -12.5398 H           1 MOL       0.0749
     59 H24        31.8509   34.6765  -14.9195 H           1 MOL       0.0467
     60 H25        32.5803   36.2657  -15.0544 H           1 MOL       0.0467
     61 H26        30.0249   34.3430  -13.1106 H           1 MOL       0.0557
     62 H27        31.2829   38.1770  -14.3618 H           1 MOL       0.0557
     63 H28        27.9750   35.3030  -12.2700 H           1 MOL       0.0599
     64 H29        29.2370   39.1198  -13.5017 H           1 MOL       0.0599
     65 H30        27.5761   37.6910  -12.4549 H           1 MOL       0.0559
@<TRIPOS>BOND
     1    24    25   1
     2    25    28   1
     3    25    26   1
     4    26    27  ar
     5    26    35  ar
     6    28    29   1
     7    29    30  ar
     8    29    31  ar
     9    31    33  ar
    10    33    34  ar
    11    32    34  ar
    12    30    32  ar
    13     2     1   1
    14     3     2   1
    15     2     6   1
    16     3     4  ar
    17     3     5  ar
    18    13     3   1
    19     6     7   1
    20     7     8  ar
    21     7     9  ar
    22     8    10  ar
    23     9    11  ar
    24    10    12  ar
    25    11    12  ar
    26    14    13   1
    27    14    15   1
    28    22    14   1
    29    15    16   1
    30    16    17  ar
    31    16    18  ar
    32    17    19  ar
    33    18    20  ar
    34    19    21  ar
    35    20    21  ar
    36    22    23   2
    37    22    24  am
    38     1    36   1
    39     1    37   1
    40     1    38   1
    41     2    39   1
    42     6    40   1
    43     6    41   1
    44     8    42   1
    45     9    43   1
    46    10    44   1
    47    11    45   1
    48    12    46   1
    49    13    47   1
    50    13    48   1
    51    14    49   1
    52    15    50   1
    53    15    51   1
    54    17    52   1
    55    18    53   1
    56    19    54   1
    57    20    55   1
    58    21    56   1
    59    24    57   1
    60    25    58   1
    61    28    59   1
    62    28    60   1
    63    30    61   1
    64    31    62   1
    65    32    63   1
    66    33    64   1
    67    34    65   1
@<TRIPOS>SUBSTRUCTURE
     1  MOL      2

