@<TRIPOS>MOLECULE
1oyt_ligand_007
    55    59
SMALL
GAST_HUCK
****
This file was generated by PARSER (from files_GN.cpp)

@<TRIPOS>ATOM
      1 O21        21.7418  -15.1223   24.5672 O.2         1 FSN      -0.3850
      2 C20        21.4671  -15.4952   23.4295 C.2         1 FSN       0.2221
      3 N19        21.2697  -14.6739   22.4146 N.am        1 FSN      -0.1734
      4 C23        21.4747  -13.2391   22.4512 C.3         1 FSN       0.0905
      5 C24        20.4328  -12.4594   21.7293 C.ar        1 FSN      -0.0199
      6 C32        19.1878  -12.1662   22.3365 C.ar        1 FSN      -0.0597
      7 C31        18.1870  -11.4876   21.6182 C.ar        1 FSN      -0.0348
      8 C30        18.4011  -11.1311   20.2715 C.ar        1 FSN       0.1248
      9 F29        17.4515  -10.5475   19.5911 F           1 FSN      -0.1893
     10 C26        19.6313  -11.4324   19.6559 C.ar        1 FSN      -0.0348
     11 C25        20.6482  -12.0620   20.3891 C.ar        1 FSN      -0.0597
     12 C17        20.9395  -15.3944   21.3521 C.2         1 FSN       0.2202
     13 O18        20.7098  -14.9695   20.2276 O.2         1 FSN      -0.3852
     14 C16        20.8136  -16.7985   21.6352 C.3         1 FSN       0.1237
     15 C15        21.7591  -17.6875   20.7952 C.3         1 FSN       0.0043
     16 N11        22.9662  -17.8448   21.6147 N.4         1 FSN       0.2554
     17 C12        23.6345  -19.0688   21.1013 C.3         1 FSN      -0.0294
     18 C13        22.5363  -19.9691   20.4888 C.3         1 FSN      -0.0072
     19 C14        21.2552  -19.1152   20.4932 C.3         1 FSN      -0.0022
     20 C10        22.5569  -17.8264   23.0534 C.3         1 FSN       0.0362
     21 C7         23.6397  -17.5138   24.0431 C.ar        1 FSN       0.0072
     22 C8         23.3159  -17.4304   25.4161 C.ar        1 FSN      -0.0548
     23 C9         24.2921  -17.1264   26.3839 C.ar        1 FSN      -0.0632
     24 C4         25.6539  -16.9650   26.0279 C.ar        1 FSN       0.0188
     25 C5         25.9852  -17.0886   24.6513 C.ar        1 FSN      -0.0632
     26 C6         25.0022  -17.3309   23.6817 C.ar        1 FSN      -0.0548
     27 C3         26.6365  -16.6973   26.9929 C.cat       1 FSN       0.2318
     28 N1         26.3586  -16.1952   28.1310 N.pl3       1 FSN      -0.2729
     29 N2         27.8730  -16.9447   26.7943 N.pl3       1 FSN      -0.2729
     30 C22        21.2985  -16.8948   23.0951 C.3         1 FSN       0.1316
     31 H1         22.4604  -13.0410   22.0238 H           1 FSN       0.0733
     32 H2         21.5207  -12.8568   23.4756 H           1 FSN       0.0733
     33 H3         19.0033  -12.4492   23.3018 H           1 FSN       0.0548
     34 H4         17.2904  -11.2778   22.0673 H           1 FSN       0.0587
     35 H5         19.7787  -11.2159   18.6711 H           1 FSN       0.0587
     36 H6         21.5318  -12.2830   19.9215 H           1 FSN       0.0548
     37 H7         19.7646  -17.0981   21.5261 H           1 FSN       0.0632
     38 H8         22.0267  -17.2105   19.8465 H           1 FSN       0.0882
     39 H9         23.5573  -17.0279   21.4436 H           1 FSN       0.2057
     40 H10        24.1836  -19.6058   21.8804 H           1 FSN       0.0815
     41 H11        24.3501  -18.7752   20.3250 H           1 FSN       0.0815
     42 H12        22.3915  -20.8660   21.0961 H           1 FSN       0.0319
     43 H13        22.8050  -20.2750   19.4724 H           1 FSN       0.0319
     44 H14        20.7270  -19.1601   19.5356 H           1 FSN       0.0323
     45 H15        20.5814  -19.4618   21.2809 H           1 FSN       0.0323
     46 H16        22.2099  -18.8328   23.3138 H           1 FSN       0.1048
     47 H17        22.3497  -17.5682   25.7231 H           1 FSN       0.0559
     48 H18        23.9907  -17.0522   27.3601 H           1 FSN       0.0599
     49 H19        26.9548  -16.9776   24.3399 H           1 FSN       0.0599
     50 H20        25.2986  -17.3794   22.7047 H           1 FSN       0.0559
     51 H21        27.0412  -16.0337   28.7491 H           1 FSN       0.3180
     52 H22        25.4787  -15.9699   28.3520 H           1 FSN       0.3180
     53 H23        28.1605  -17.3195   25.9882 H           1 FSN       0.3180
     54 H24        28.4992  -16.7547   27.4606 H           1 FSN       0.3180
     55 H25        20.5184  -17.3287   23.7308 H           1 FSN       0.0654
@<TRIPOS>BOND
     1     1     2   2
     2     2     3  am
     3     2    30   1
     4     3     4   1
     5     3    12  am
     6     4     5   1
     7     5     6  ar
     8     5    11  ar
     9     6     7  ar
    10     7     8  ar
    11     8     9   1
    12     8    10  ar
    13    10    11  ar
    14    12    13   2
    15    12    14   1
    16    14    15   1
    17    14    30   1
    18    15    16   1
    19    15    19   1
    20    16    17   1
    21    16    20   1
    22    17    18   1
    23    18    19   1
    24    20    21   1
    25    20    30   1
    26    21    22  ar
    27    21    26  ar
    28    22    23  ar
    29    23    24  ar
    30    24    25  ar
    31    24    27   1
    32    25    26  ar
    33    27    28  ar
    34    27    29  ar
    35     4    31   1
    36     4    32   1
    37     6    33   1
    38     7    34   1
    39    10    35   1
    40    11    36   1
    41    14    37   1
    42    15    38   1
    43    16    39   1
    44    17    40   1
    45    17    41   1
    46    18    42   1
    47    18    43   1
    48    19    44   1
    49    19    45   1
    50    20    46   1
    51    22    47   1
    52    23    48   1
    53    25    49   1
    54    26    50   1
    55    28    51   1
    56    28    52   1
    57    29    53   1
    58    29    54   1
    59    30    55   1
@<TRIPOS>SUBSTRUCTURE
     1  FSN      2

