@<TRIPOS>MOLECULE
1oyt_ligand_057
    55    59
SMALL
GAST_HUCK
****
This file was generated by PARSER (from files_GN.cpp)

@<TRIPOS>ATOM
      1 O21        11.8151  -11.4600   23.5575 O.2         1 FSN      -0.3850
      2 C20        11.3604  -10.4497   24.0788 C.2         1 FSN       0.2221
      3 N19        11.4961  -10.2007   25.3635 N.am        1 FSN      -0.1734
      4 C23        12.1567  -11.1061   26.2540 C.3         1 FSN       0.0905
      5 C24        11.4185  -12.3483   26.6301 C.ar        1 FSN      -0.0199
      6 C32        11.8429  -13.0396   27.7902 C.ar        1 FSN      -0.0597
      7 C31        11.1929  -14.2175   28.2004 C.ar        1 FSN      -0.0348
      8 C30        10.1483  -14.7577   27.4272 C.ar        1 FSN       0.1248
      9 F29         9.5859  -15.8757   27.7780 F           1 FSN      -0.1893
     10 C26         9.7470  -14.1147   26.2454 C.ar        1 FSN      -0.0348
     11 C25        10.3625  -12.9115   25.8635 C.ar        1 FSN      -0.0597
     12 C17        10.9444   -9.0404   25.6570 C.2         1 FSN       0.2202
     13 O18        10.9684   -8.4969   26.7546 O.2         1 FSN      -0.3852
     14 C16        10.2815   -8.4502   24.5284 C.3         1 FSN       0.1237
     15 C15        10.9611   -7.1827   23.9672 C.3         1 FSN       0.0043
     16 N11        11.6605   -7.6050   22.7273 N.4         1 FSN       0.2554
     17 C12        11.7477   -6.3814   21.8821 C.3         1 FSN      -0.0294
     18 C13        10.7393   -5.3401   22.4198 C.3         1 FSN      -0.0072
     19 C14         9.9922   -6.0441   23.5572 C.3         1 FSN      -0.0022
     20 C10        10.9619   -8.7978   22.1531 C.3         1 FSN       0.0362
     21 C7         11.6937   -9.6596   21.1571 C.ar        1 FSN       0.0072
     22 C8         12.6244   -9.1402   20.2302 C.ar        1 FSN      -0.0548
     23 C9         13.2965   -9.9694   19.3133 C.ar        1 FSN      -0.0632
     24 C4         13.1367  -11.3777   19.3363 C.ar        1 FSN       0.0188
     25 C5         12.1987  -11.8965   20.2617 C.ar        1 FSN      -0.0632
     26 C6         11.4370  -11.0476   21.0826 C.ar        1 FSN      -0.0548
     27 C3         13.8530  -12.2209   18.4657 C.cat       1 FSN       0.2318
     28 N1         14.6875  -11.7754   17.6055 N.pl3       1 FSN      -0.2729
     29 N2         13.7209  -13.4930   18.4678 N.pl3       1 FSN      -0.2729
     30 C22        10.4556   -9.5246   23.4367 C.3         1 FSN       0.1316
     31 H1         12.4351  -10.5809   27.1637 H           1 FSN       0.0733
     32 H2         13.0905  -11.4105   25.7819 H           1 FSN       0.0733
     33 H3         12.6267  -12.6859   28.3456 H           1 FSN       0.0548
     34 H4         11.5010  -14.6933   29.0529 H           1 FSN       0.0587
     35 H5          9.0109  -14.5101   25.6541 H           1 FSN       0.0587
     36 H6         10.0262  -12.4758   25.0054 H           1 FSN       0.0548
     37 H7          9.2310   -8.2701   24.7868 H           1 FSN       0.0632
     38 H8         11.6920   -6.7703   24.6728 H           1 FSN       0.0882
     39 H9         12.6004   -7.9116   22.9947 H           1 FSN       0.2057
     40 H10        11.5427   -6.5808   20.8278 H           1 FSN       0.0815
     41 H11        12.7702   -6.0000   21.9634 H           1 FSN       0.0815
     42 H12        10.0578   -4.9962   21.6363 H           1 FSN       0.0319
     43 H13        11.2640   -4.4749   22.8279 H           1 FSN       0.0319
     44 H14         9.7844   -5.3676   24.3875 H           1 FSN       0.0323
     45 H15         9.0399   -6.4294   23.1846 H           1 FSN       0.0323
     46 H16        10.0827   -8.4354   21.6151 H           1 FSN       0.1048
     47 H17        12.8266   -8.1365   20.1910 H           1 FSN       0.0559
     48 H18        13.9172   -9.5209   18.6448 H           1 FSN       0.0599
     49 H19        12.0358  -12.9048   20.3502 H           1 FSN       0.0599
     50 H20        10.7088  -11.4780   21.6575 H           1 FSN       0.0559
     51 H21        15.1393  -12.3657   17.0415 H           1 FSN       0.3180
     52 H22        14.8543  -10.8579   17.5367 H           1 FSN       0.3180
     53 H23        13.1353  -13.9093   19.0650 H           1 FSN       0.3180
     54 H24        14.2142  -14.0160   17.8714 H           1 FSN       0.3180
     55 H25         9.5018  -10.0310   23.2530 H           1 FSN       0.0654
@<TRIPOS>BOND
     1     1     2   2
     2     2     3  am
     3     2    30   1
     4     3     4   1
     5     3    12  am
     6     4     5   1
     7     5     6  ar
     8     5    11  ar
     9     6     7  ar
    10     7     8  ar
    11     8     9   1
    12     8    10  ar
    13    10    11  ar
    14    12    13   2
    15    12    14   1
    16    14    15   1
    17    14    30   1
    18    15    16   1
    19    15    19   1
    20    16    17   1
    21    16    20   1
    22    17    18   1
    23    18    19   1
    24    20    21   1
    25    20    30   1
    26    21    22  ar
    27    21    26  ar
    28    22    23  ar
    29    23    24  ar
    30    24    25  ar
    31    24    27   1
    32    25    26  ar
    33    27    28  ar
    34    27    29  ar
    35     4    31   1
    36     4    32   1
    37     6    33   1
    38     7    34   1
    39    10    35   1
    40    11    36   1
    41    14    37   1
    42    15    38   1
    43    16    39   1
    44    17    40   1
    45    17    41   1
    46    18    42   1
    47    18    43   1
    48    19    44   1
    49    19    45   1
    50    20    46   1
    51    22    47   1
    52    23    48   1
    53    25    49   1
    54    26    50   1
    55    28    51   1
    56    28    52   1
    57    29    53   1
    58    29    54   1
    59    30    55   1
@<TRIPOS>SUBSTRUCTURE
     1  FSN      2

