@<TRIPOS>MOLECULE
1oyt_ligand_035
    55    59
SMALL
GAST_HUCK
****
This file was generated by PARSER (from files_GN.cpp)

@<TRIPOS>ATOM
      1 O21        12.1694  -11.7755    7.0504 O.2         1 FSN      -0.3850
      2 C20        11.6154  -12.8213    7.3559 C.2         1 FSN       0.2221
      3 N19        11.4584  -13.8597    6.5514 N.am        1 FSN      -0.1734
      4 C23        11.9677  -13.9675    5.1996 C.3         1 FSN       0.0905
      5 C24        12.7038  -15.2344    4.9231 C.ar        1 FSN      -0.0199
      6 C32        13.8628  -15.5720    5.6625 C.ar        1 FSN      -0.0597
      7 C31        14.5501  -16.7779    5.4157 C.ar        1 FSN      -0.0348
      8 C30        14.0878  -17.6635    4.4253 C.ar        1 FSN       0.1248
      9 F29        14.7012  -18.7953    4.2145 F           1 FSN      -0.1893
     10 C26        12.9564  -17.3246    3.6583 C.ar        1 FSN      -0.0348
     11 C25        12.2707  -16.1208    3.9096 C.ar        1 FSN      -0.0597
     12 C17        10.6708  -14.7442    7.1368 C.2         1 FSN       0.2202
     13 O18        10.2703  -15.7869    6.6300 O.2         1 FSN      -0.3852
     14 C16        10.2891  -14.3589    8.4699 C.3         1 FSN       0.1237
     15 C15        10.9113  -15.2138    9.6125 C.3         1 FSN       0.0043
     16 N11        11.3591  -14.2396   10.6296 N.4         1 FSN       0.2554
     17 C12        10.2903  -14.2011   11.6568 C.3         1 FSN      -0.0294
     18 C13         9.8099  -15.6546   11.7600 C.3         1 FSN      -0.0072
     19 C14         9.9607  -16.2047   10.3307 C.3         1 FSN      -0.0022
     20 C10        11.6927  -12.9481    9.9566 C.3         1 FSN       0.0362
     21 C7         13.1783  -12.7244    9.8915 C.ar        1 FSN       0.0072
     22 C8         14.0367  -13.6127    9.2082 C.ar        1 FSN      -0.0548
     23 C9         15.4173  -13.3655    9.1121 C.ar        1 FSN      -0.0632
     24 C4         16.0162  -12.2197    9.6992 C.ar        1 FSN       0.0188
     25 C5         15.1543  -11.3530   10.4228 C.ar        1 FSN      -0.0632
     26 C6         13.7691  -11.5958   10.5094 C.ar        1 FSN      -0.0548
     27 C3         17.3942  -11.9497    9.5622 C.cat       1 FSN       0.2318
     28 N1         18.1742  -12.6678    8.8487 N.pl3       1 FSN      -0.2729
     29 N2         17.9703  -10.9621   10.1335 N.pl3       1 FSN      -0.2729
     30 C22        10.9100  -12.9587    8.6075 C.3         1 FSN       0.1316
     31 H1         12.6482  -13.1453    4.9693 H           1 FSN       0.0733
     32 H2         11.1187  -13.8582    4.5187 H           1 FSN       0.0733
     33 H3         14.2177  -14.9417    6.3881 H           1 FSN       0.0548
     34 H4         15.3844  -17.0087    5.9529 H           1 FSN       0.0587
     35 H5         12.6255  -17.9521    2.9193 H           1 FSN       0.0587
     36 H6         11.4493  -15.8996    3.3474 H           1 FSN       0.0548
     37 H7          9.1990  -14.3002    8.5561 H           1 FSN       0.0632
     38 H8         11.7849  -15.7649    9.2506 H           1 FSN       0.0882
     39 H9         12.1973  -14.6125   11.0806 H           1 FSN       0.2057
     40 H10         9.4571  -13.5599   11.3494 H           1 FSN       0.0815
     41 H11        10.6812  -13.8462   12.6132 H           1 FSN       0.0815
     42 H12         8.7774  -15.7105   12.1115 H           1 FSN       0.0319
     43 H13        10.4548  -16.2077   12.4486 H           1 FSN       0.0319
     44 H14        10.3922  -17.2093   10.3607 H           1 FSN       0.0323
     45 H15         8.9886  -16.2665    9.8363 H           1 FSN       0.0323
     46 H16        11.2692  -12.1317   10.5517 H           1 FSN       0.1048
     47 H17        13.6657  -14.4499    8.7560 H           1 FSN       0.0559
     48 H18        15.9814  -14.0442    8.5917 H           1 FSN       0.0599
     49 H19        15.5165  -10.5153   10.8835 H           1 FSN       0.0599
     50 H20        13.1958  -10.9252   11.0244 H           1 FSN       0.0559
     51 H21        19.0823  -12.4499    8.7832 H           1 FSN       0.3180
     52 H22        17.8492  -13.4086    8.3817 H           1 FSN       0.3180
     53 H23        17.4856  -10.3702   10.6698 H           1 FSN       0.3180
     54 H24        18.8872  -10.8202   10.0095 H           1 FSN       0.3180
     55 H25        10.1158  -12.2039    8.6361 H           1 FSN       0.0654
@<TRIPOS>BOND
     1     1     2   2
     2     2     3  am
     3     2    30   1
     4     3     4   1
     5     3    12  am
     6     4     5   1
     7     5     6  ar
     8     5    11  ar
     9     6     7  ar
    10     7     8  ar
    11     8     9   1
    12     8    10  ar
    13    10    11  ar
    14    12    13   2
    15    12    14   1
    16    14    15   1
    17    14    30   1
    18    15    16   1
    19    15    19   1
    20    16    17   1
    21    16    20   1
    22    17    18   1
    23    18    19   1
    24    20    21   1
    25    20    30   1
    26    21    22  ar
    27    21    26  ar
    28    22    23  ar
    29    23    24  ar
    30    24    25  ar
    31    24    27   1
    32    25    26  ar
    33    27    28  ar
    34    27    29  ar
    35     4    31   1
    36     4    32   1
    37     6    33   1
    38     7    34   1
    39    10    35   1
    40    11    36   1
    41    14    37   1
    42    15    38   1
    43    16    39   1
    44    17    40   1
    45    17    41   1
    46    18    42   1
    47    18    43   1
    48    19    44   1
    49    19    45   1
    50    20    46   1
    51    22    47   1
    52    23    48   1
    53    25    49   1
    54    26    50   1
    55    28    51   1
    56    28    52   1
    57    29    53   1
    58    29    54   1
    59    30    55   1
@<TRIPOS>SUBSTRUCTURE
     1  FSN      2

