@<TRIPOS>MOLECULE
1oyt_ligand_014
    55    59
SMALL
GAST_HUCK
****
This file was generated by PARSER (from files_GN.cpp)

@<TRIPOS>ATOM
      1 O21        13.6321  -12.2220   18.4106 O.2         1 FSN      -0.3850
      2 C20        14.6754  -12.8521   18.5306 C.2         1 FSN       0.2221
      3 N19        15.8859  -12.3755   18.2666 N.am        1 FSN      -0.1734
      4 C23        16.1709  -11.0494   17.7657 C.3         1 FSN       0.0905
      5 C24        16.0652  -10.9397   16.2746 C.ar        1 FSN      -0.0199
      6 C32        17.0127  -10.2052   15.5295 C.ar        1 FSN      -0.0597
      7 C31        16.8454  -10.0169   14.1389 C.ar        1 FSN      -0.0348
      8 C30        15.7356  -10.5666   13.4720 C.ar        1 FSN       0.1248
      9 F29        15.5705  -10.3720   12.1912 F           1 FSN      -0.1893
     10 C26        14.7995  -11.3333   14.1941 C.ar        1 FSN      -0.0348
     11 C25        14.9569  -11.5123   15.5803 C.ar        1 FSN      -0.0597
     12 C17        16.7806  -13.3040   18.5477 C.2         1 FSN       0.2202
     13 O18        17.9984  -13.1570   18.4593 O.2         1 FSN      -0.3852
     14 C16        16.1948  -14.5342   19.0017 C.3         1 FSN       0.1237
     15 C15        16.5873  -14.9958   20.4375 C.3         1 FSN       0.0043
     16 N11        15.3257  -15.1988   21.1834 N.4         1 FSN       0.2554
     17 C12        15.1689  -16.6607   21.3743 C.3         1 FSN      -0.0294
     18 C13        16.6087  -17.1554   21.5677 C.3         1 FSN      -0.0072
     19 C14        17.3888  -16.3211   20.5364 C.3         1 FSN      -0.0022
     20 C10        14.2121  -14.4662   20.5056 C.3         1 FSN       0.0362
     21 C7         13.7851  -13.2639   21.2978 C.ar        1 FSN       0.0072
     22 C8         14.6117  -12.1247   21.4510 C.ar        1 FSN      -0.0548
     23 C9         14.1612  -10.9849   22.1441 C.ar        1 FSN      -0.0632
     24 C4         12.8521  -10.9099   22.6945 C.ar        1 FSN       0.0188
     25 C5         12.0383  -12.0641   22.5457 C.ar        1 FSN      -0.0632
     26 C6         12.4922  -13.2088   21.8678 C.ar        1 FSN      -0.0548
     27 C3         12.3771   -9.7412   23.3211 C.cat       1 FSN       0.2318
     28 N1         13.1204   -8.7349   23.5839 N.pl3       1 FSN      -0.2729
     29 N2         11.1541   -9.5912   23.6652 N.pl3       1 FSN      -0.2729
     30 C22        14.6935  -14.1953   19.0420 C.3         1 FSN       0.1316
     31 H1         17.1596  -10.7282   18.1122 H           1 FSN       0.0733
     32 H2         15.4612  -10.3403   18.2083 H           1 FSN       0.0733
     33 H3         17.8209   -9.7677   15.9938 H           1 FSN       0.0548
     34 H4         17.5284   -9.4688   13.6190 H           1 FSN       0.0587
     35 H5         13.9766  -11.7314   13.7257 H           1 FSN       0.0587
     36 H6         14.2516  -12.0575   16.0830 H           1 FSN       0.0548
     37 H7         16.3824  -15.3101   18.2554 H           1 FSN       0.0632
     38 H8         17.1473  -14.2144   20.9549 H           1 FSN       0.0882
     39 H9         15.4563  -14.8028   22.1193 H           1 FSN       0.2057
     40 H10        14.7255  -17.1386   20.4957 H           1 FSN       0.0815
     41 H11        14.5522  -16.8727   22.2556 H           1 FSN       0.0815
     42 H12        16.6969  -18.2293   21.3848 H           1 FSN       0.0319
     43 H13        16.9550  -16.9272   22.5824 H           1 FSN       0.0319
     44 H14        18.4165  -16.1457   20.8669 H           1 FSN       0.0323
     45 H15        17.4162  -16.8647   19.5878 H           1 FSN       0.0323
     46 H16        13.3534  -15.1380   20.4322 H           1 FSN       0.1048
     47 H17        15.5459  -12.1114   21.0433 H           1 FSN       0.0559
     48 H18        14.8050  -10.1900   22.2104 H           1 FSN       0.0599
     49 H19        11.0867  -12.0873   22.9220 H           1 FSN       0.0599
     50 H20        11.8539  -14.0019   21.7682 H           1 FSN       0.0559
     51 H21        12.7524   -7.9775   23.9974 H           1 FSN       0.3180
     52 H22        14.0215   -8.7455   23.3652 H           1 FSN       0.3180
     53 H23        10.5218  -10.2623   23.5051 H           1 FSN       0.3180
     54 H24        10.8783   -8.7917   24.0751 H           1 FSN       0.3180
     55 H25        14.1454  -14.8353   18.3425 H           1 FSN       0.0654
@<TRIPOS>BOND
     1     1     2   2
     2     2     3  am
     3     2    30   1
     4     3     4   1
     5     3    12  am
     6     4     5   1
     7     5     6  ar
     8     5    11  ar
     9     6     7  ar
    10     7     8  ar
    11     8     9   1
    12     8    10  ar
    13    10    11  ar
    14    12    13   2
    15    12    14   1
    16    14    15   1
    17    14    30   1
    18    15    16   1
    19    15    19   1
    20    16    17   1
    21    16    20   1
    22    17    18   1
    23    18    19   1
    24    20    21   1
    25    20    30   1
    26    21    22  ar
    27    21    26  ar
    28    22    23  ar
    29    23    24  ar
    30    24    25  ar
    31    24    27   1
    32    25    26  ar
    33    27    28  ar
    34    27    29  ar
    35     4    31   1
    36     4    32   1
    37     6    33   1
    38     7    34   1
    39    10    35   1
    40    11    36   1
    41    14    37   1
    42    15    38   1
    43    16    39   1
    44    17    40   1
    45    17    41   1
    46    18    42   1
    47    18    43   1
    48    19    44   1
    49    19    45   1
    50    20    46   1
    51    22    47   1
    52    23    48   1
    53    25    49   1
    54    26    50   1
    55    28    51   1
    56    28    52   1
    57    29    53   1
    58    29    54   1
    59    30    55   1
@<TRIPOS>SUBSTRUCTURE
     1  FSN      2

