@<TRIPOS>MOLECULE
1oyt_ligand_027
    55    59
SMALL
GAST_HUCK
****
This file was generated by PARSER (from files_GN.cpp)

@<TRIPOS>ATOM
      1 O21        15.7577  -15.6022   19.2374 O.2         1 FSN      -0.3850
      2 C20        16.5569  -16.4901   19.5146 C.2         1 FSN       0.2221
      3 N19        16.8436  -17.5164   18.7312 N.am        1 FSN      -0.1734
      4 C23        16.3836  -17.6748   17.3654 C.3         1 FSN       0.0905
      5 C24        14.9125  -17.8734   17.2820 C.ar        1 FSN      -0.0199
      6 C32        14.0591  -16.8439   16.8148 C.ar        1 FSN      -0.0597
      7 C31        12.6669  -17.0323   16.7642 C.ar        1 FSN      -0.0348
      8 C30        12.1061  -18.2632   17.1529 C.ar        1 FSN       0.1248
      9 F29        10.8132  -18.4446   17.0844 F           1 FSN      -0.1893
     10 C26        12.9410  -19.2946   17.6202 C.ar        1 FSN      -0.0348
     11 C25        14.3328  -19.0981   17.6917 C.ar        1 FSN      -0.0597
     12 C17        17.6038  -18.3702   19.3911 C.2         1 FSN       0.2202
     13 O18        17.9981  -19.4487   18.9692 O.2         1 FSN      -0.3852
     14 C16        17.8282  -17.9638   20.7573 C.3         1 FSN       0.1237
     15 C15        19.3072  -17.7291   21.1752 C.3         1 FSN       0.0043
     16 N11        19.3112  -16.4303   21.8806 N.4         1 FSN       0.2554
     17 C12        19.2439  -16.7350   23.3303 C.3         1 FSN      -0.0294
     18 C13        20.1427  -17.9729   23.4694 C.3         1 FSN      -0.0072
     19 C14        19.8981  -18.7633   22.1704 C.3         1 FSN      -0.0022
     20 C10        18.2438  -15.5660   21.2942 C.3         1 FSN       0.0362
     21 C7         18.7416  -14.5628   20.2787 C.ar        1 FSN       0.0072
     22 C8         17.8430  -13.5807   19.7917 C.ar        1 FSN      -0.0548
     23 C9         18.2351  -12.6212   18.8396 C.ar        1 FSN      -0.0632
     24 C4         19.5741  -12.5436   18.3791 C.ar        1 FSN       0.0188
     25 C5         20.4911  -13.4771   18.9192 C.ar        1 FSN      -0.0632
     26 C6         20.0831  -14.4730   19.8250 C.ar        1 FSN      -0.0548
     27 C3         19.9725  -11.5544   17.4659 C.cat       1 FSN       0.2318
     28 N1         19.1658  -11.0425   16.6197 N.pl3       1 FSN      -0.2729
     29 N2         21.1641  -11.0899   17.4409 N.pl3       1 FSN      -0.2729
     30 C22        17.1492  -16.5869   20.8274 C.3         1 FSN       0.1316
     31 H1         16.8610  -18.5294   16.8736 H           1 FSN       0.0733
     32 H2         16.6932  -16.7958   16.7961 H           1 FSN       0.0733
     33 H3         14.4466  -15.9437   16.5231 H           1 FSN       0.0548
     34 H4         12.0613  -16.2689   16.4465 H           1 FSN       0.0587
     35 H5         12.5360  -20.1887   17.9162 H           1 FSN       0.0587
     36 H6         14.9216  -19.8561   18.0450 H           1 FSN       0.0548
     37 H7         17.3149  -18.6637   21.4291 H           1 FSN       0.0632
     38 H8         19.9526  -17.6501   20.2941 H           1 FSN       0.0882
     39 H9         20.2201  -15.9898   21.7413 H           1 FSN       0.2057
     40 H10        18.2228  -16.9677   23.6523 H           1 FSN       0.0815
     41 H11        19.6309  -15.8986   23.9185 H           1 FSN       0.0815
     42 H12        19.8874  -18.5553   24.3573 H           1 FSN       0.0319
     43 H13        21.1907  -17.6643   23.5260 H           1 FSN       0.0319
     44 H14        20.8356  -19.1765   21.7916 H           1 FSN       0.0323
     45 H15        19.2068  -19.5914   22.3561 H           1 FSN       0.0323
     46 H16        17.8154  -14.9648   22.1074 H           1 FSN       0.1048
     47 H17        16.8844  -13.5494   20.1444 H           1 FSN       0.0559
     48 H18        17.5395  -11.9396   18.5285 H           1 FSN       0.0599
     49 H19        21.4757  -13.4431   18.6508 H           1 FSN       0.0599
     50 H20        20.7939  -15.1340   20.1483 H           1 FSN       0.0559
     51 H21        19.4591  -10.3665   16.0425 H           1 FSN       0.3180
     52 H22        18.2810  -11.3381   16.5685 H           1 FSN       0.3180
     53 H23        21.8080  -11.4032   18.0402 H           1 FSN       0.3180
     54 H24        21.3912  -10.4077   16.8408 H           1 FSN       0.3180
     55 H25        16.3403  -16.6228   21.5703 H           1 FSN       0.0654
@<TRIPOS>BOND
     1     1     2   2
     2     2     3  am
     3     2    30   1
     4     3     4   1
     5     3    12  am
     6     4     5   1
     7     5     6  ar
     8     5    11  ar
     9     6     7  ar
    10     7     8  ar
    11     8     9   1
    12     8    10  ar
    13    10    11  ar
    14    12    13   2
    15    12    14   1
    16    14    15   1
    17    14    30   1
    18    15    16   1
    19    15    19   1
    20    16    17   1
    21    16    20   1
    22    17    18   1
    23    18    19   1
    24    20    21   1
    25    20    30   1
    26    21    22  ar
    27    21    26  ar
    28    22    23  ar
    29    23    24  ar
    30    24    25  ar
    31    24    27   1
    32    25    26  ar
    33    27    28  ar
    34    27    29  ar
    35     4    31   1
    36     4    32   1
    37     6    33   1
    38     7    34   1
    39    10    35   1
    40    11    36   1
    41    14    37   1
    42    15    38   1
    43    16    39   1
    44    17    40   1
    45    17    41   1
    46    18    42   1
    47    18    43   1
    48    19    44   1
    49    19    45   1
    50    20    46   1
    51    22    47   1
    52    23    48   1
    53    25    49   1
    54    26    50   1
    55    28    51   1
    56    28    52   1
    57    29    53   1
    58    29    54   1
    59    30    55   1
@<TRIPOS>SUBSTRUCTURE
     1  FSN      2

