@<TRIPOS>MOLECULE
1oyt_ligand_003
    55    59
SMALL
GAST_HUCK
****
This file was generated by PARSER (from files_GN.cpp)

@<TRIPOS>ATOM
      1 O21        15.8018  -13.7349   19.1680 O.2         1 FSN      -0.3850
      2 C20        15.2204  -12.6585   19.0961 C.2         1 FSN       0.2221
      3 N19        14.7968  -12.0612   17.9864 N.am        1 FSN      -0.1734
      4 C23        14.9316  -12.5279   16.6204 C.3         1 FSN       0.0905
      5 C24        15.0985  -14.0010   16.4275 C.ar        1 FSN      -0.0199
      6 C32        14.1238  -14.8963   16.9299 C.ar        1 FSN      -0.0597
      7 C31        14.3076  -16.2895   16.8387 C.ar        1 FSN      -0.0348
      8 C30        15.4678  -16.8072   16.2326 C.ar        1 FSN       0.1248
      9 F29        15.6405  -18.0992   16.1577 F           1 FSN      -0.1893
     10 C26        16.4272  -15.9327   15.6873 C.ar        1 FSN      -0.0348
     11 C25        16.2476  -14.5404   15.7896 C.ar        1 FSN      -0.0597
     12 C17        14.2933  -10.8776   18.3033 C.2         1 FSN       0.2202
     13 O18        13.8573  -10.0519   17.5082 O.2         1 FSN      -0.3852
     14 C16        14.3646  -10.5971   19.7144 C.3         1 FSN       0.1237
     15 C15        13.0144  -10.3478   20.4460 C.3         1 FSN       0.0043
     16 N11        12.9616  -11.3092   21.5716 N.4         1 FSN       0.2554
     17 C12        13.2467  -10.5359   22.8033 C.3         1 FSN      -0.0294
     18 C13        12.5778   -9.1792   22.5493 C.3         1 FSN      -0.0072
     19 C14        12.8158   -8.9369   21.0509 C.3         1 FSN      -0.0022
     20 C10        13.8597  -12.4615   21.2882 C.3         1 FSN       0.0362
     21 C7         13.0536  -13.6631   20.8641 C.ar        1 FSN       0.0072
     22 C8         12.3629  -13.6903   19.6355 C.ar        1 FSN      -0.0548
     23 C9         11.6465  -14.8300   19.2193 C.ar        1 FSN      -0.0632
     24 C4         11.5811  -16.0010   20.0181 C.ar        1 FSN       0.0188
     25 C5         12.2753  -15.9631   21.2560 C.ar        1 FSN      -0.0632
     26 C6         12.9942  -14.8230   21.6664 C.ar        1 FSN      -0.0548
     27 C3         10.9033  -17.1513   19.5768 C.cat       1 FSN       0.2318
     28 N1         10.1859  -17.1573   18.5174 N.pl3       1 FSN      -0.2729
     29 N2         10.9694  -18.2695   20.1832 N.pl3       1 FSN      -0.2729
     30 C22        14.9279  -11.9065   20.2899 C.3         1 FSN       0.1316
     31 H1         15.7710  -11.9904   16.1709 H           1 FSN       0.0733
     32 H2         14.0377  -12.2526   16.0594 H           1 FSN       0.0733
     33 H3         13.2733  -14.5284   17.3574 H           1 FSN       0.0548
     34 H4         13.6051  -16.9138   17.2388 H           1 FSN       0.0587
     35 H5         17.2593  -16.3073   15.2376 H           1 FSN       0.0587
     36 H6         16.9649  -13.9177   15.4028 H           1 FSN       0.0548
     37 H7         15.0783   -9.7815   19.8736 H           1 FSN       0.0632
     38 H8         12.1741  -10.5559   19.7826 H           1 FSN       0.0882
     39 H9         12.0007  -11.6497   21.6529 H           1 FSN       0.2057
     40 H10        14.3228  -10.3933   22.9522 H           1 FSN       0.0815
     41 H11        12.8281  -11.0334   23.6831 H           1 FSN       0.0815
     42 H12        13.0203   -8.3957   23.1701 H           1 FSN       0.0319
     43 H13        11.5058   -9.2463   22.7615 H           1 FSN       0.0319
     44 H14        11.9626   -8.4304   20.5982 H           1 FSN       0.0323
     45 H15        13.6954   -8.3064   20.9237 H           1 FSN       0.0323
     46 H16        14.4004  -12.7376   22.2020 H           1 FSN       0.1048
     47 H17        12.3726  -12.8841   19.0152 H           1 FSN       0.0559
     48 H18        11.1801  -14.7849   18.3135 H           1 FSN       0.0599
     49 H19        12.2572  -16.7685   21.8893 H           1 FSN       0.0599
     50 H20        13.4615  -14.8480   22.5799 H           1 FSN       0.0559
     51 H21         9.7240  -17.9244   18.2554 H           1 FSN       0.3180
     52 H22        10.0897  -16.3850   18.0058 H           1 FSN       0.3180
     53 H23        11.4792  -18.3623   20.9584 H           1 FSN       0.3180
     54 H24        10.5124  -19.0139   19.8500 H           1 FSN       0.3180
     55 H25        15.8659  -11.6996   20.8186 H           1 FSN       0.0654
@<TRIPOS>BOND
     1     1     2   2
     2     2     3  am
     3     2    30   1
     4     3     4   1
     5     3    12  am
     6     4     5   1
     7     5     6  ar
     8     5    11  ar
     9     6     7  ar
    10     7     8  ar
    11     8     9   1
    12     8    10  ar
    13    10    11  ar
    14    12    13   2
    15    12    14   1
    16    14    15   1
    17    14    30   1
    18    15    16   1
    19    15    19   1
    20    16    17   1
    21    16    20   1
    22    17    18   1
    23    18    19   1
    24    20    21   1
    25    20    30   1
    26    21    22  ar
    27    21    26  ar
    28    22    23  ar
    29    23    24  ar
    30    24    25  ar
    31    24    27   1
    32    25    26  ar
    33    27    28  ar
    34    27    29  ar
    35     4    31   1
    36     4    32   1
    37     6    33   1
    38     7    34   1
    39    10    35   1
    40    11    36   1
    41    14    37   1
    42    15    38   1
    43    16    39   1
    44    17    40   1
    45    17    41   1
    46    18    42   1
    47    18    43   1
    48    19    44   1
    49    19    45   1
    50    20    46   1
    51    22    47   1
    52    23    48   1
    53    25    49   1
    54    26    50   1
    55    28    51   1
    56    28    52   1
    57    29    53   1
    58    29    54   1
    59    30    55   1
@<TRIPOS>SUBSTRUCTURE
     1  FSN      2

