@<TRIPOS>MOLECULE
1oyt_ligand_029
    55    59
SMALL
GAST_HUCK
****
This file was generated by PARSER (from files_GN.cpp)

@<TRIPOS>ATOM
      1 O21        15.2838  -14.4293   17.5348 O.2         1 FSN      -0.3850
      2 C20        15.7549  -15.4002   18.1118 C.2         1 FSN       0.2221
      3 N19        16.2561  -16.4607   17.4982 N.am        1 FSN      -0.1734
      4 C23        16.3821  -16.6134   16.0635 C.3         1 FSN       0.0905
      5 C24        15.2097  -17.1994   15.3468 C.ar        1 FSN      -0.0199
      6 C32        15.2812  -17.3535   13.9426 C.ar        1 FSN      -0.0597
      7 C31        14.2077  -17.9104   13.2170 C.ar        1 FSN      -0.0348
      8 C30        13.0475  -18.3317   13.8899 C.ar        1 FSN       0.1248
      9 F29        12.0576  -18.8545   13.2214 F           1 FSN      -0.1893
     10 C26        12.9632  -18.1972   15.2850 C.ar        1 FSN      -0.0348
     11 C25        14.0344  -17.6349   16.0071 C.ar        1 FSN      -0.0597
     12 C17        16.5801  -17.3704   18.3968 C.2         1 FSN       0.2202
     13 O18        17.0409  -18.4760   18.1493 O.2         1 FSN      -0.3852
     14 C16        16.2177  -16.9807   19.7327 C.3         1 FSN       0.1237
     15 C15        17.3695  -16.9434   20.7754 C.3         1 FSN       0.0043
     16 N11        17.2855  -15.6123   21.4111 N.4         1 FSN       0.2554
     17 C12        16.5988  -15.8132   22.7057 C.3         1 FSN      -0.0294
     18 C13        17.1589  -17.1509   23.2057 C.3         1 FSN      -0.0072
     19 C14        17.2731  -17.9888   21.9215 C.3         1 FSN      -0.0022
     20 C10        16.6816  -14.6449   20.4456 C.3         1 FSN       0.0362
     21 C7         17.6678  -13.7833   19.6926 C.ar        1 FSN       0.0072
     22 C8         19.0701  -13.9733   19.7218 C.ar        1 FSN      -0.0548
     23 C9         19.9376  -13.1528   18.9778 C.ar        1 FSN      -0.0632
     24 C4         19.4412  -12.0948   18.1750 C.ar        1 FSN       0.0188
     25 C5         18.0401  -11.8866   18.1695 C.ar        1 FSN      -0.0632
     26 C6         17.1823  -12.6982   18.9244 C.ar        1 FSN      -0.0548
     27 C3         20.2948  -11.2721   17.4205 C.cat       1 FSN       0.2318
     28 N1         21.5348  -11.1267   17.6828 N.pl3       1 FSN      -0.2729
     29 N2         19.8783  -10.5969   16.4184 N.pl3       1 FSN      -0.2729
     30 C22        15.7411  -15.5288   19.5551 C.3         1 FSN       0.1316
     31 H1         17.2538  -17.2352   15.8394 H           1 FSN       0.0733
     32 H2         16.5998  -15.6288   15.6266 H           1 FSN       0.0733
     33 H3         16.1184  -17.0639   13.4297 H           1 FSN       0.0548
     34 H4         14.2802  -18.0148   12.2027 H           1 FSN       0.0587
     35 H5         12.1282  -18.5127   15.7840 H           1 FSN       0.0587
     36 H6         13.9441  -17.5551   17.0222 H           1 FSN       0.0548
     37 H7         15.3821  -17.6046   20.0638 H           1 FSN       0.0632
     38 H8         18.3468  -17.0285   20.2841 H           1 FSN       0.0882
     39 H9         18.2306  -15.3061   21.6452 H           1 FSN       0.2057
     40 H10        15.5127  -15.8871   22.5847 H           1 FSN       0.0815
     41 H11        16.8300  -15.0029   23.4000 H           1 FSN       0.0815
     42 H12        16.5013  -17.6193   23.9446 H           1 FSN       0.0319
     43 H13        18.1485  -17.0005   23.6488 H           1 FSN       0.0319
     44 H14        18.1583  -18.6313   21.9512 H           1 FSN       0.0323
     45 H15        16.3928  -18.6313   21.8265 H           1 FSN       0.0323
     46 H16        16.0624  -13.9467   21.0156 H           1 FSN       0.1048
     47 H17        19.4866  -14.7257   20.2699 H           1 FSN       0.0559
     48 H18        20.9398  -13.3539   19.0129 H           1 FSN       0.0599
     49 H19        17.6250  -11.1213   17.6358 H           1 FSN       0.0599
     50 H20        16.1782  -12.5051   18.8898 H           1 FSN       0.0559
     51 H21        22.0478  -10.5400   17.1600 H           1 FSN       0.3180
     52 H22        21.9278  -11.5705   18.4054 H           1 FSN       0.3180
     53 H23        18.9834  -10.6448   16.1500 H           1 FSN       0.3180
     54 H24        20.4737  -10.0485   15.9476 H           1 FSN       0.3180
     55 H25        14.7111  -15.4314   19.9077 H           1 FSN       0.0654
@<TRIPOS>BOND
     1     1     2   2
     2     2     3  am
     3     2    30   1
     4     3     4   1
     5     3    12  am
     6     4     5   1
     7     5     6  ar
     8     5    11  ar
     9     6     7  ar
    10     7     8  ar
    11     8     9   1
    12     8    10  ar
    13    10    11  ar
    14    12    13   2
    15    12    14   1
    16    14    15   1
    17    14    30   1
    18    15    16   1
    19    15    19   1
    20    16    17   1
    21    16    20   1
    22    17    18   1
    23    18    19   1
    24    20    21   1
    25    20    30   1
    26    21    22  ar
    27    21    26  ar
    28    22    23  ar
    29    23    24  ar
    30    24    25  ar
    31    24    27   1
    32    25    26  ar
    33    27    28  ar
    34    27    29  ar
    35     4    31   1
    36     4    32   1
    37     6    33   1
    38     7    34   1
    39    10    35   1
    40    11    36   1
    41    14    37   1
    42    15    38   1
    43    16    39   1
    44    17    40   1
    45    17    41   1
    46    18    42   1
    47    18    43   1
    48    19    44   1
    49    19    45   1
    50    20    46   1
    51    22    47   1
    52    23    48   1
    53    25    49   1
    54    26    50   1
    55    28    51   1
    56    28    52   1
    57    29    53   1
    58    29    54   1
    59    30    55   1
@<TRIPOS>SUBSTRUCTURE
     1  FSN      2

