@<TRIPOS>MOLECULE
1oyt_ligand_000
    55    59
SMALL
GAST_HUCK
****
This file was generated by PARSER (from files_GN.cpp)

@<TRIPOS>ATOM
      1 O21        15.7848  -10.3669   20.3194 O.2         1 FSN      -0.3850
      2 C20        16.2939  -11.1613   19.5400 C.2         1 FSN       0.2221
      3 N19        17.5791  -11.4741   19.5214 N.am        1 FSN      -0.1734
      4 C23        18.5903  -10.9840   20.4314 C.3         1 FSN       0.0905
      5 C24        18.9319  -11.9944   21.4703 C.ar        1 FSN      -0.0199
      6 C32        17.9765  -12.3539   22.4509 C.ar        1 FSN      -0.0597
      7 C31        18.2912  -13.2904   23.4535 C.ar        1 FSN      -0.0348
      8 C30        19.5661  -13.8858   23.4869 C.ar        1 FSN       0.1248
      9 F29        19.8600  -14.7488   24.4219 F           1 FSN      -0.1893
     10 C26        20.5248  -13.5418   22.5159 C.ar        1 FSN      -0.0348
     11 C25        20.2095  -12.6031   21.5149 C.ar        1 FSN      -0.0597
     12 C17        17.8099  -12.3044   18.5218 C.2         1 FSN       0.2202
     13 O18        18.9052  -12.7680   18.2283 O.2         1 FSN      -0.3852
     14 C16        16.6264  -12.6060   17.7584 C.3         1 FSN       0.1237
     15 C15        16.1713  -14.0837   17.8656 C.3         1 FSN       0.0043
     16 N11        15.0796  -14.1157   18.8532 N.4         1 FSN       0.2554
     17 C12        14.2519  -15.3126   18.5412 C.3         1 FSN      -0.0294
     18 C13        14.5989  -15.7557   17.1021 C.3         1 FSN      -0.0072
     19 C14        15.5746  -14.6893   16.5795 C.3         1 FSN      -0.0022
     20 C10        14.4034  -12.7836   18.8258 C.3         1 FSN       0.0362
     21 C7         13.5796  -12.4308   20.0298 C.ar        1 FSN       0.0072
     22 C8         12.7792  -11.2653   20.0022 C.ar        1 FSN      -0.0548
     23 C9         11.9903  -10.8938   21.1068 C.ar        1 FSN      -0.0632
     24 C4         11.9525  -11.6788   22.2873 C.ar        1 FSN       0.0188
     25 C5         12.7496  -12.8526   22.3056 C.ar        1 FSN      -0.0632
     26 C6         13.5462  -13.2189   21.2046 C.ar        1 FSN      -0.0548
     27 C3         11.1475  -11.3221   23.3817 C.cat       1 FSN       0.2318
     28 N1         10.6903  -10.1398   23.5512 N.pl3       1 FSN      -0.2729
     29 N2         10.8028  -12.1641   24.2794 N.pl3       1 FSN      -0.2729
     30 C22        15.5390  -11.7740   18.4679 C.3         1 FSN       0.1316
     31 H1         18.2597  -10.0720   20.9343 H           1 FSN       0.0733
     32 H2         19.4762  -10.6968   19.8574 H           1 FSN       0.0733
     33 H3         17.0491  -11.9234   22.4522 H           1 FSN       0.0548
     34 H4         17.5956  -13.5273   24.1642 H           1 FSN       0.0587
     35 H5         21.4544  -13.9680   22.5379 H           1 FSN       0.0587
     36 H6         20.9220  -12.3661   20.8208 H           1 FSN       0.0548
     37 H7         16.7675  -12.2878   16.7198 H           1 FSN       0.0632
     38 H8         16.9798  -14.7342   18.2177 H           1 FSN       0.0882
     39 H9         15.5067  -14.2381   19.7730 H           1 FSN       0.2057
     40 H10        13.1803  -15.1162   18.6402 H           1 FSN       0.0815
     41 H11        14.5129  -16.1068   19.2444 H           1 FSN       0.0815
     42 H12        13.7073  -15.8141   16.4718 H           1 FSN       0.0319
     43 H13        15.0861  -16.7356   17.1132 H           1 FSN       0.0319
     44 H14        16.3512  -15.1230   15.9426 H           1 FSN       0.0323
     45 H15        15.0272  -13.9310   16.0128 H           1 FSN       0.0323
     46 H16        13.7102  -12.7869   17.9744 H           1 FSN       0.1048
     47 H17        12.7663  -10.6732   19.1681 H           1 FSN       0.0559
     48 H18        11.4246  -10.0463   21.0243 H           1 FSN       0.0599
     49 H19        12.7725  -13.4578   23.1316 H           1 FSN       0.0599
     50 H20        14.1018  -14.0732   21.2788 H           1 FSN       0.0559
     51 H21        10.1515   -9.9476   24.2938 H           1 FSN       0.3180
     52 H22        10.8897   -9.4602   22.9413 H           1 FSN       0.3180
     53 H23        11.0750  -13.0558   24.2223 H           1 FSN       0.3180
     54 H24        10.2283  -11.9036   24.9708 H           1 FSN       0.3180
     55 H25        15.1568  -10.9857   17.8087 H           1 FSN       0.0654
@<TRIPOS>BOND
     1     1     2   2
     2     2     3  am
     3     2    30   1
     4     3     4   1
     5     3    12  am
     6     4     5   1
     7     5     6  ar
     8     5    11  ar
     9     6     7  ar
    10     7     8  ar
    11     8     9   1
    12     8    10  ar
    13    10    11  ar
    14    12    13   2
    15    12    14   1
    16    14    15   1
    17    14    30   1
    18    15    16   1
    19    15    19   1
    20    16    17   1
    21    16    20   1
    22    17    18   1
    23    18    19   1
    24    20    21   1
    25    20    30   1
    26    21    22  ar
    27    21    26  ar
    28    22    23  ar
    29    23    24  ar
    30    24    25  ar
    31    24    27   1
    32    25    26  ar
    33    27    28  ar
    34    27    29  ar
    35     4    31   1
    36     4    32   1
    37     6    33   1
    38     7    34   1
    39    10    35   1
    40    11    36   1
    41    14    37   1
    42    15    38   1
    43    16    39   1
    44    17    40   1
    45    17    41   1
    46    18    42   1
    47    18    43   1
    48    19    44   1
    49    19    45   1
    50    20    46   1
    51    22    47   1
    52    23    48   1
    53    25    49   1
    54    26    50   1
    55    28    51   1
    56    28    52   1
    57    29    53   1
    58    29    54   1
    59    30    55   1
@<TRIPOS>SUBSTRUCTURE
     1  FSN      2

