@<TRIPOS>MOLECULE
1oyt_ligand_050
    55    59
SMALL
GAST_HUCK
****
This file was generated by PARSER (from files_GN.cpp)

@<TRIPOS>ATOM
      1 O21        10.5158  -13.2003   23.7871 O.2         1 FSN      -0.3850
      2 C20        10.8619  -12.2560   24.4863 C.2         1 FSN       0.2221
      3 N19        10.9832  -12.3334   25.7983 N.am        1 FSN      -0.1734
      4 C23        10.6390  -13.4752   26.6182 C.3         1 FSN       0.0905
      5 C24         9.3526  -13.3443   27.3781 C.ar        1 FSN      -0.0199
      6 C32         8.9279  -14.4523   28.1377 C.ar        1 FSN      -0.0597
      7 C31         7.7582  -14.3941   28.9155 C.ar        1 FSN      -0.0348
      8 C30         6.9686  -13.2334   28.9302 C.ar        1 FSN       0.1248
      9 F29         5.8751  -13.1887   29.6452 F           1 FSN      -0.1893
     10 C26         7.3682  -12.1170   28.1778 C.ar        1 FSN      -0.0348
     11 C25         8.5554  -12.1672   27.4251 C.ar        1 FSN      -0.0597
     12 C17        11.2590  -11.1431   26.2931 C.2         1 FSN       0.2202
     13 O18        11.2305  -10.9291   27.5027 O.2         1 FSN      -0.3852
     14 C16        11.0203  -10.1104   25.3132 C.3         1 FSN       0.1237
     15 C15        12.1528   -9.0996   25.0895 C.3         1 FSN       0.0043
     16 N11        12.7939   -9.4111   23.8017 N.4         1 FSN       0.2554
     17 C12        13.1677   -8.1110   23.1690 C.3         1 FSN      -0.0294
     18 C13        12.8516   -7.0126   24.2026 C.3         1 FSN      -0.0072
     19 C14        11.7144   -7.6240   25.0164 C.3         1 FSN      -0.0022
     20 C10        11.9628  -10.3810   23.0050 C.3         1 FSN       0.0362
     21 C7         12.7564  -11.4226   22.2525 C.ar        1 FSN       0.0072
     22 C8         12.0894  -12.3788   21.4426 C.ar        1 FSN      -0.0548
     23 C9         12.7851  -13.4455   20.8374 C.ar        1 FSN      -0.0632
     24 C4         14.1946  -13.5582   20.9393 C.ar        1 FSN       0.0188
     25 C5         14.8745  -12.5236   21.6398 C.ar        1 FSN      -0.0632
     26 C6         14.1734  -11.4902   22.2838 C.ar        1 FSN      -0.0548
     27 C3         14.8899  -14.6550   20.4012 C.cat       1 FSN       0.2318
     28 N1         14.3469  -15.8077   20.2960 N.pl3       1 FSN      -0.2729
     29 N2         16.1079  -14.5757   20.0233 N.pl3       1 FSN      -0.2729
     30 C22        10.8629  -10.8962   23.9977 C.3         1 FSN       0.1316
     31 H1         11.4461  -13.6295   27.3413 H           1 FSN       0.0733
     32 H2         10.5849  -14.3853   26.0103 H           1 FSN       0.0733
     33 H3          9.4695  -15.3199   28.1273 H           1 FSN       0.0548
     34 H4          7.4867  -15.2106   29.4639 H           1 FSN       0.0587
     35 H5          6.8055  -11.2622   28.1828 H           1 FSN       0.0587
     36 H6          8.8357  -11.3079   26.9245 H           1 FSN       0.0548
     37 H7         10.0927   -9.5924   25.5762 H           1 FSN       0.0632
     38 H8         12.9021   -9.1876   25.8781 H           1 FSN       0.0882
     39 H9         13.6583   -9.8827   24.0553 H           1 FSN       0.2057
     40 H10        12.5869   -7.9194   22.2639 H           1 FSN       0.0815
     41 H11        14.2289   -8.1049   22.9037 H           1 FSN       0.0815
     42 H12        12.5394   -6.0720   23.7470 H           1 FSN       0.0319
     43 H13        13.7118   -6.8339   24.8478 H           1 FSN       0.0319
     44 H14        11.6274   -7.1723   26.0087 H           1 FSN       0.0323
     45 H15        10.7682   -7.5142   24.4761 H           1 FSN       0.0323
     46 H16        11.4172   -9.8264   22.2293 H           1 FSN       0.1048
     47 H17        11.0753  -12.3252   21.3145 H           1 FSN       0.0559
     48 H18        12.2450  -14.1446   20.3073 H           1 FSN       0.0599
     49 H19        15.8955  -12.5411   21.7331 H           1 FSN       0.0599
     50 H20        14.7293  -10.7908   22.7741 H           1 FSN       0.0559
     51 H21        14.8386  -16.5344   19.9578 H           1 FSN       0.3180
     52 H22        13.4626  -15.9433   20.5694 H           1 FSN       0.3180
     53 H23        16.5668  -13.7588   20.0767 H           1 FSN       0.3180
     54 H24        16.5524  -15.3374   19.6913 H           1 FSN       0.3180
     55 H25         9.8698  -10.6953   23.5786 H           1 FSN       0.0654
@<TRIPOS>BOND
     1     1     2   2
     2     2     3  am
     3     2    30   1
     4     3     4   1
     5     3    12  am
     6     4     5   1
     7     5     6  ar
     8     5    11  ar
     9     6     7  ar
    10     7     8  ar
    11     8     9   1
    12     8    10  ar
    13    10    11  ar
    14    12    13   2
    15    12    14   1
    16    14    15   1
    17    14    30   1
    18    15    16   1
    19    15    19   1
    20    16    17   1
    21    16    20   1
    22    17    18   1
    23    18    19   1
    24    20    21   1
    25    20    30   1
    26    21    22  ar
    27    21    26  ar
    28    22    23  ar
    29    23    24  ar
    30    24    25  ar
    31    24    27   1
    32    25    26  ar
    33    27    28  ar
    34    27    29  ar
    35     4    31   1
    36     4    32   1
    37     6    33   1
    38     7    34   1
    39    10    35   1
    40    11    36   1
    41    14    37   1
    42    15    38   1
    43    16    39   1
    44    17    40   1
    45    17    41   1
    46    18    42   1
    47    18    43   1
    48    19    44   1
    49    19    45   1
    50    20    46   1
    51    22    47   1
    52    23    48   1
    53    25    49   1
    54    26    50   1
    55    28    51   1
    56    28    52   1
    57    29    53   1
    58    29    54   1
    59    30    55   1
@<TRIPOS>SUBSTRUCTURE
     1  FSN      2

