@<TRIPOS>MOLECULE
1oyt_ligand_004
    55    59
SMALL
GAST_HUCK
****
This file was generated by PARSER (from files_GN.cpp)

@<TRIPOS>ATOM
      1 O21        14.0988  -16.1183   20.9182 O.2         1 FSN      -0.3850
      2 C20        14.0527  -15.6936   19.7686 C.2         1 FSN       0.2221
      3 N19        13.0724  -15.9240   18.9044 N.am        1 FSN      -0.1734
      4 C23        11.8097  -16.5535   19.2431 C.3         1 FSN       0.0905
      5 C24        11.9232  -17.8739   19.9244 C.ar        1 FSN      -0.0199
      6 C32        12.1685  -17.9287   21.3163 C.ar        1 FSN      -0.0597
      7 C31        12.3029  -19.1635   21.9787 C.ar        1 FSN      -0.0348
      8 C30        12.1975  -20.3704   21.2607 C.ar        1 FSN       0.1248
      9 F29        12.3621  -21.5110   21.8725 F           1 FSN      -0.1893
     10 C26        11.9396  -20.3310   19.8749 C.ar        1 FSN      -0.0348
     11 C25        11.8012  -19.0922   19.2122 C.ar        1 FSN      -0.0597
     12 C17        13.3920  -15.4095   17.7262 C.2         1 FSN       0.2202
     13 O18        12.6975  -15.4647   16.7206 O.2         1 FSN      -0.3852
     14 C16        14.7006  -14.7972   17.7205 C.3         1 FSN       0.1237
     15 C15        14.7573  -13.2829   17.3520 C.3         1 FSN       0.0043
     16 N11        15.5087  -12.6334   18.4496 N.4         1 FSN       0.2554
     17 C12        16.9052  -12.4879   17.9675 C.3         1 FSN      -0.0294
     18 C13        16.7328  -12.0961   16.4939 C.3         1 FSN      -0.0072
     19 C14        15.5098  -12.9157   16.0437 C.3         1 FSN      -0.0022
     20 C10        15.2967  -13.4167   19.7027 C.3         1 FSN       0.0362
     21 C7         14.2276  -12.8705   20.6145 C.ar        1 FSN       0.0072
     22 C8         13.3407  -11.8159   20.2708 C.ar        1 FSN      -0.0548
     23 C9         12.3793  -11.3384   21.1845 C.ar        1 FSN      -0.0632
     24 C4         12.2414  -11.9139   22.4741 C.ar        1 FSN       0.0188
     25 C5         13.1321  -12.9624   22.8171 C.ar        1 FSN      -0.0632
     26 C6         14.1073  -13.4209   21.9156 C.ar        1 FSN      -0.0548
     27 C3         11.2674  -11.4799   23.3750 C.cat       1 FSN       0.2318
     28 N1         10.8278  -10.2809   23.3855 N.pl3       1 FSN      -0.2729
     29 N2         10.7506  -12.2692   24.2364 N.pl3       1 FSN      -0.2729
     30 C22        15.1132  -14.8876   19.2000 C.3         1 FSN       0.1316
     31 H1         11.1761  -16.6861   18.3597 H           1 FSN       0.0733
     32 H2         11.2642  -15.8597   19.8881 H           1 FSN       0.0733
     33 H3         12.2612  -17.0624   21.8523 H           1 FSN       0.0548
     34 H4         12.5058  -19.1801   22.9791 H           1 FSN       0.0587
     35 H5         11.8526  -21.2057   19.3476 H           1 FSN       0.0587
     36 H6         11.6090  -19.0852   18.2097 H           1 FSN       0.0548
     37 H7         15.3782  -15.3960   17.0989 H           1 FSN       0.0632
     38 H8         13.7474  -12.8592   17.3260 H           1 FSN       0.0882
     39 H9         15.1484  -11.6822   18.5774 H           1 FSN       0.2057
     40 H10        17.4669  -13.4275   18.0402 H           1 FSN       0.0815
     41 H11        17.4290  -11.7088   18.5279 H           1 FSN       0.0815
     42 H12        17.6241  -12.3350   15.9098 H           1 FSN       0.0319
     43 H13        16.5255  -11.0244   16.4162 H           1 FSN       0.0319
     44 H14        14.8758  -12.3250   15.3774 H           1 FSN       0.0323
     45 H15        15.8413  -13.8051   15.5048 H           1 FSN       0.0323
     46 H16        16.2216  -13.3673   20.2900 H           1 FSN       0.1048
     47 H17        13.3847  -11.3833   19.3478 H           1 FSN       0.0559
     48 H18        11.7566  -10.5798   20.8884 H           1 FSN       0.0599
     49 H19        13.0846  -13.3912   23.7422 H           1 FSN       0.0599
     50 H20        14.7411  -14.1671   22.2175 H           1 FSN       0.0559
     51 H21        10.1716  -10.0338   24.0039 H           1 FSN       0.3180
     52 H22        11.1631   -9.6459   22.7863 H           1 FSN       0.3180
     53 H23        11.0054  -13.1684   24.2620 H           1 FSN       0.3180
     54 H24        10.0824  -11.9633   24.8141 H           1 FSN       0.3180
     55 H25        16.0621  -15.4320   19.2815 H           1 FSN       0.0654
@<TRIPOS>BOND
     1     1     2   2
     2     2     3  am
     3     2    30   1
     4     3     4   1
     5     3    12  am
     6     4     5   1
     7     5     6  ar
     8     5    11  ar
     9     6     7  ar
    10     7     8  ar
    11     8     9   1
    12     8    10  ar
    13    10    11  ar
    14    12    13   2
    15    12    14   1
    16    14    15   1
    17    14    30   1
    18    15    16   1
    19    15    19   1
    20    16    17   1
    21    16    20   1
    22    17    18   1
    23    18    19   1
    24    20    21   1
    25    20    30   1
    26    21    22  ar
    27    21    26  ar
    28    22    23  ar
    29    23    24  ar
    30    24    25  ar
    31    24    27   1
    32    25    26  ar
    33    27    28  ar
    34    27    29  ar
    35     4    31   1
    36     4    32   1
    37     6    33   1
    38     7    34   1
    39    10    35   1
    40    11    36   1
    41    14    37   1
    42    15    38   1
    43    16    39   1
    44    17    40   1
    45    17    41   1
    46    18    42   1
    47    18    43   1
    48    19    44   1
    49    19    45   1
    50    20    46   1
    51    22    47   1
    52    23    48   1
    53    25    49   1
    54    26    50   1
    55    28    51   1
    56    28    52   1
    57    29    53   1
    58    29    54   1
    59    30    55   1
@<TRIPOS>SUBSTRUCTURE
     1  FSN      2

