@<TRIPOS>MOLECULE
1oyt_ligand_042
    55    59
SMALL
GAST_HUCK
****
This file was generated by PARSER (from files_GN.cpp)

@<TRIPOS>ATOM
      1 O21        11.6153  -15.1912    5.4463 O.2         1 FSN      -0.3850
      2 C20        10.9707  -15.5013    6.4396 C.2         1 FSN       0.2221
      3 N19        10.4790  -16.7029    6.6985 N.am        1 FSN      -0.1734
      4 C23        10.5682  -17.8442    5.8120 C.3         1 FSN       0.0905
      5 C24        11.9626  -18.2477    5.4769 C.ar        1 FSN      -0.0199
      6 C32        12.8071  -18.7883    6.4730 C.ar        1 FSN      -0.0597
      7 C31        14.1362  -19.1425    6.1730 C.ar        1 FSN      -0.0348
      8 C30        14.6350  -18.9705    4.8691 C.ar        1 FSN       0.1248
      9 F29        15.8689  -19.2960    4.5914 F           1 FSN      -0.1893
     10 C26        13.8018  -18.4470    3.8652 C.ar        1 FSN      -0.0348
     11 C25        12.4749  -18.0890    4.1671 C.ar        1 FSN      -0.0597
     12 C17         9.8040  -16.6586    7.8373 C.2         1 FSN       0.2202
     13 O18         9.1829  -17.5922    8.3293 O.2         1 FSN      -0.3852
     14 C16         9.6979  -15.3213    8.3710 C.3         1 FSN       0.1237
     15 C15        10.1766  -15.0820    9.8322 C.3         1 FSN       0.0043
     16 N11        11.2563  -14.0677    9.7621 N.4         1 FSN       0.2554
     17 C12        10.6865  -12.7978   10.2755 C.3         1 FSN      -0.0294
     18 C13         9.7271  -13.2407   11.3856 C.3         1 FSN      -0.0072
     19 C14         9.1133  -14.5316   10.8208 C.3         1 FSN      -0.0022
     20 C10        11.8221  -14.0374    8.3818 C.3         1 FSN       0.0362
     21 C7         13.1399  -14.7661    8.3227 C.ar        1 FSN       0.0072
     22 C8         13.2845  -16.1022    8.7609 C.ar        1 FSN      -0.0548
     23 C9         14.5328  -16.7497    8.7441 C.ar        1 FSN      -0.0632
     24 C4         15.7007  -16.1039    8.2649 C.ar        1 FSN       0.0188
     25 C5         15.5463  -14.7699    7.8059 C.ar        1 FSN      -0.0632
     26 C6         14.3003  -14.1166    7.8412 C.ar        1 FSN      -0.0548
     27 C3         16.9499  -16.7534    8.2526 C.cat       1 FSN       0.2318
     28 N1         17.1437  -17.9010    8.7816 N.pl3       1 FSN      -0.2729
     29 N2         17.9898  -16.2422    7.7129 N.pl3       1 FSN      -0.2729
     30 C22        10.6643  -14.5417    7.4684 C.3         1 FSN       0.1316
     31 H1         10.0150  -17.5903    4.9044 H           1 FSN       0.0733
     32 H2         10.0678  -18.7206    6.2346 H           1 FSN       0.0733
     33 H3         12.4586  -18.9239    7.4251 H           1 FSN       0.0548
     34 H4         14.7393  -19.5214    6.9077 H           1 FSN       0.0587
     35 H5         14.1580  -18.3187    2.9147 H           1 FSN       0.0587
     36 H6         11.8887  -17.7003    3.4240 H           1 FSN       0.0548
     37 H7          8.6717  -14.9716    8.2130 H           1 FSN       0.0632
     38 H8         10.5928  -15.9996   10.2569 H           1 FSN       0.0882
     39 H9         11.9921  -14.3460   10.4169 H           1 FSN       0.2057
     40 H10        10.1270  -12.2608    9.5004 H           1 FSN       0.0815
     41 H11        11.4723  -12.1476   10.6667 H           1 FSN       0.0815
     42 H12         8.9685  -12.4808   11.5914 H           1 FSN       0.0319
     43 H13        10.2858  -13.4522   12.3023 H           1 FSN       0.0319
     44 H14         8.9112  -15.2467   11.6229 H           1 FSN       0.0323
     45 H15         8.1684  -14.2973   10.3246 H           1 FSN       0.0323
     46 H16        12.0088  -12.9955    8.0975 H           1 FSN       0.1048
     47 H17        12.4808  -16.6260    9.1020 H           1 FSN       0.0559
     48 H18        14.5681  -17.7142    9.0816 H           1 FSN       0.0599
     49 H19        16.3456  -14.2416    7.4517 H           1 FSN       0.0599
     50 H20        14.2503  -13.1494    7.5125 H           1 FSN       0.0559
     51 H21        17.9930  -18.2930    8.7512 H           1 FSN       0.3180
     52 H22        16.4473  -18.3561    9.2060 H           1 FSN       0.3180
     53 H23        17.9486  -15.4081    7.2957 H           1 FSN       0.3180
     54 H24        18.8021  -16.7061    7.7293 H           1 FSN       0.3180
     55 H25        10.1367  -13.6892    7.0228 H           1 FSN       0.0654
@<TRIPOS>BOND
     1     1     2   2
     2     2     3  am
     3     2    30   1
     4     3     4   1
     5     3    12  am
     6     4     5   1
     7     5     6  ar
     8     5    11  ar
     9     6     7  ar
    10     7     8  ar
    11     8     9   1
    12     8    10  ar
    13    10    11  ar
    14    12    13   2
    15    12    14   1
    16    14    15   1
    17    14    30   1
    18    15    16   1
    19    15    19   1
    20    16    17   1
    21    16    20   1
    22    17    18   1
    23    18    19   1
    24    20    21   1
    25    20    30   1
    26    21    22  ar
    27    21    26  ar
    28    22    23  ar
    29    23    24  ar
    30    24    25  ar
    31    24    27   1
    32    25    26  ar
    33    27    28  ar
    34    27    29  ar
    35     4    31   1
    36     4    32   1
    37     6    33   1
    38     7    34   1
    39    10    35   1
    40    11    36   1
    41    14    37   1
    42    15    38   1
    43    16    39   1
    44    17    40   1
    45    17    41   1
    46    18    42   1
    47    18    43   1
    48    19    44   1
    49    19    45   1
    50    20    46   1
    51    22    47   1
    52    23    48   1
    53    25    49   1
    54    26    50   1
    55    28    51   1
    56    28    52   1
    57    29    53   1
    58    29    54   1
    59    30    55   1
@<TRIPOS>SUBSTRUCTURE
     1  FSN      2

