@<TRIPOS>MOLECULE
1oyt_ligand_013
    55    59
SMALL
GAST_HUCK
****
This file was generated by PARSER (from files_GN.cpp)

@<TRIPOS>ATOM
      1 O21        15.7879  -11.0372   20.6529 O.2         1 FSN      -0.3850
      2 C20        14.8382  -11.8026   20.5503 C.2         1 FSN       0.2221
      3 N19        13.5730  -11.4329   20.4905 N.am        1 FSN      -0.1734
      4 C23        13.1129  -10.0636   20.4476 C.3         1 FSN       0.0905
      5 C24        12.7726   -9.5570   21.8024 C.ar        1 FSN      -0.0199
      6 C32        11.4888   -9.7929   22.3464 C.ar        1 FSN      -0.0597
      7 C31        11.1428   -9.3073   23.6186 C.ar        1 FSN      -0.0348
      8 C30        12.0839   -8.5882   24.3773 C.ar        1 FSN       0.1248
      9 F29        11.7660   -8.1382   25.5594 F           1 FSN      -0.1893
     10 C26        13.3690   -8.3533   23.8532 C.ar        1 FSN      -0.0348
     11 C25        13.7140   -8.8353   22.5762 C.ar        1 FSN      -0.0597
     12 C17        12.8075  -12.5099   20.4817 C.2         1 FSN       0.2202
     13 O18        11.5839  -12.5038   20.4510 O.2         1 FSN      -0.3852
     14 C16        13.5592  -13.7403   20.5311 C.3         1 FSN       0.1237
     15 C15        13.4313  -14.6249   19.2612 C.3         1 FSN       0.0043
     16 N11        14.6018  -14.3194   18.4251 N.4         1 FSN       0.2554
     17 C12        14.8539  -15.4932   17.5527 C.3         1 FSN      -0.0294
     18 C13        14.1373  -16.6967   18.2003 C.3         1 FSN      -0.0072
     19 C14        13.5025  -16.1506   19.4923 C.3         1 FSN      -0.0022
     20 C10        15.7094  -13.9005   19.3325 C.3         1 FSN       0.0362
     21 C7         16.7559  -13.0941   18.6239 C.ar        1 FSN       0.0072
     22 C8         18.1284  -13.3466   18.8380 C.ar        1 FSN      -0.0548
     23 C9         19.1158  -12.5964   18.1744 C.ar        1 FSN      -0.0632
     24 C4         18.7778  -11.5686   17.2553 C.ar        1 FSN       0.0188
     25 C5         17.3960  -11.3207   17.0498 C.ar        1 FSN      -0.0632
     26 C6         16.4097  -12.0640   17.7192 C.ar        1 FSN      -0.0548
     27 C3         19.7652  -10.8272   16.5841 C.cat       1 FSN       0.2318
     28 N1         21.0085  -11.1171   16.6428 N.pl3       1 FSN      -0.2729
     29 N2         19.4951   -9.8019   15.8683 N.pl3       1 FSN      -0.2729
     30 C22        15.0157  -13.2341   20.5585 C.3         1 FSN       0.1316
     31 H1         12.2475   -9.9806   19.7844 H           1 FSN       0.0733
     32 H2         13.8691   -9.4170   19.9934 H           1 FSN       0.0733
     33 H3         10.7914  -10.3123   21.8122 H           1 FSN       0.0548
     34 H4         10.2050   -9.4805   23.9851 H           1 FSN       0.0587
     35 H5         14.0518   -7.8308   24.4027 H           1 FSN       0.0587
     36 H6         14.6533   -8.6500   22.2125 H           1 FSN       0.0548
     37 H7         13.2999  -14.2893   21.4420 H           1 FSN       0.0632
     38 H8         12.5183  -14.3933   18.6975 H           1 FSN       0.0882
     39 H9         14.3478  -13.5289   17.8325 H           1 FSN       0.2057
     40 H10        15.9214  -15.6933   17.4181 H           1 FSN       0.0815
     41 H11        14.4262  -15.2887   16.5683 H           1 FSN       0.0815
     42 H12        14.8410  -17.5025   18.4240 H           1 FSN       0.0319
     43 H13        13.3629  -17.0805   17.5300 H           1 FSN       0.0319
     44 H14        12.5094  -16.5714   19.6633 H           1 FSN       0.0323
     45 H15        14.1419  -16.3876   20.3477 H           1 FSN       0.0323
     46 H16        16.1785  -14.8125   19.7243 H           1 FSN       0.1048
     47 H17        18.4220  -14.0794   19.4887 H           1 FSN       0.0559
     48 H18        20.0920  -12.8154   18.3834 H           1 FSN       0.0599
     49 H19        17.0801  -10.5980   16.3990 H           1 FSN       0.0599
     50 H20        15.4303  -11.8444   17.5280 H           1 FSN       0.0559
     51 H21        21.6280  -10.5758   16.1981 H           1 FSN       0.3180
     52 H22        21.3102  -11.8525   17.1352 H           1 FSN       0.3180
     53 H23        18.6163   -9.5013   15.7710 H           1 FSN       0.3180
     54 H24        20.1873   -9.3300   15.4520 H           1 FSN       0.3180
     55 H25        15.5096  -13.5236   21.4926 H           1 FSN       0.0654
@<TRIPOS>BOND
     1     1     2   2
     2     2     3  am
     3     2    30   1
     4     3     4   1
     5     3    12  am
     6     4     5   1
     7     5     6  ar
     8     5    11  ar
     9     6     7  ar
    10     7     8  ar
    11     8     9   1
    12     8    10  ar
    13    10    11  ar
    14    12    13   2
    15    12    14   1
    16    14    15   1
    17    14    30   1
    18    15    16   1
    19    15    19   1
    20    16    17   1
    21    16    20   1
    22    17    18   1
    23    18    19   1
    24    20    21   1
    25    20    30   1
    26    21    22  ar
    27    21    26  ar
    28    22    23  ar
    29    23    24  ar
    30    24    25  ar
    31    24    27   1
    32    25    26  ar
    33    27    28  ar
    34    27    29  ar
    35     4    31   1
    36     4    32   1
    37     6    33   1
    38     7    34   1
    39    10    35   1
    40    11    36   1
    41    14    37   1
    42    15    38   1
    43    16    39   1
    44    17    40   1
    45    17    41   1
    46    18    42   1
    47    18    43   1
    48    19    44   1
    49    19    45   1
    50    20    46   1
    51    22    47   1
    52    23    48   1
    53    25    49   1
    54    26    50   1
    55    28    51   1
    56    28    52   1
    57    29    53   1
    58    29    54   1
    59    30    55   1
@<TRIPOS>SUBSTRUCTURE
     1  FSN      2

