@<TRIPOS>MOLECULE
1oyt_ligand_032
    55    59
SMALL
GAST_HUCK
****
This file was generated by PARSER (from files_GN.cpp)

@<TRIPOS>ATOM
      1 O21        12.9472  -13.2166   20.1281 O.2         1 FSN      -0.3850
      2 C20        12.5891  -12.9103   21.2542 C.2         1 FSN       0.2221
      3 N19        12.6880  -13.6761   22.3226 N.am        1 FSN      -0.1734
      4 C23        13.3768  -14.9517   22.3773 C.3         1 FSN       0.0905
      5 C24        13.1021  -15.8678   21.2309 C.ar        1 FSN      -0.0199
      6 C32        11.7977  -16.3572   20.9859 C.ar        1 FSN      -0.0597
      7 C31        11.5098  -17.1106   19.8296 C.ar        1 FSN      -0.0348
      8 C30        12.5253  -17.3757   18.8928 C.ar        1 FSN       0.1248
      9 F29        12.2575  -18.0492   17.8076 F           1 FSN      -0.1893
     10 C26        13.8337  -16.9164   19.1320 C.ar        1 FSN      -0.0348
     11 C25        14.1196  -16.1697   20.2904 C.ar        1 FSN      -0.0597
     12 C17        12.1167  -13.0653   23.3456 C.2         1 FSN       0.2202
     13 O18        12.0180  -13.5264   24.4779 O.2         1 FSN      -0.3852
     14 C16        11.5348  -11.7949   22.9911 C.3         1 FSN       0.1237
     15 C15        12.1560  -10.5745   23.7099 C.3         1 FSN       0.0043
     16 N11        13.2198  -10.0814   22.8161 N.4         1 FSN       0.2554
     17 C12        13.4403   -8.6634   23.1872 C.3         1 FSN      -0.0294
     18 C13        12.0907   -8.1225   23.7037 C.3         1 FSN      -0.0072
     19 C14        11.2181   -9.3686   23.9516 C.3         1 FSN      -0.0022
     20 C10        12.8181  -10.3667   21.4048 C.3         1 FSN       0.0362
     21 C7         13.9414  -10.4547   20.4070 C.ar        1 FSN       0.0072
     22 C8         13.6235  -10.5477   19.0318 C.ar        1 FSN      -0.0548
     23 C9         14.6221  -10.7614   18.0649 C.ar        1 FSN      -0.0632
     24 C4         15.9928  -10.8402   18.4183 C.ar        1 FSN       0.0188
     25 C5         16.3036  -10.7361   19.7998 C.ar        1 FSN      -0.0632
     26 C6         15.3051  -10.5514   20.7714 C.ar        1 FSN      -0.0548
     27 C3         17.0070  -10.9935   17.4576 C.cat       1 FSN       0.2318
     28 N1         16.7672  -11.0824   16.2018 N.pl3       1 FSN      -0.2729
     29 N2         18.2500  -11.0511   17.7474 N.pl3       1 FSN      -0.2729
     30 C22        11.9322  -11.6491   21.5087 C.3         1 FSN       0.1316
     31 H1         13.1276  -15.4805   23.2976 H           1 FSN       0.0733
     32 H2         14.4453  -14.7254   22.4358 H           1 FSN       0.0733
     33 H3         11.0361  -16.1342   21.6273 H           1 FSN       0.0548
     34 H4         10.5542  -17.4299   19.6544 H           1 FSN       0.0587
     35 H5         14.5719  -17.0833   18.4431 H           1 FSN       0.0587
     36 H6         15.0644  -15.8037   20.4170 H           1 FSN       0.0548
     37 H7         10.4469  -11.8500   23.1243 H           1 FSN       0.0632
     38 H8         12.6049  -10.8621   24.6679 H           1 FSN       0.0882
     39 H9         14.0563  -10.6245   23.0258 H           1 FSN       0.2057
     40 H10        13.8306   -8.0727   22.3524 H           1 FSN       0.0815
     41 H11        14.1755   -8.6227   23.9934 H           1 FSN       0.0815
     42 H12        11.6221   -7.4793   22.9558 H           1 FSN       0.0319
     43 H13        12.2299   -7.5410   24.6211 H           1 FSN       0.0319
     44 H14        10.8240   -9.3849   24.9725 H           1 FSN       0.0323
     45 H15        10.3771   -9.3818   23.2518 H           1 FSN       0.0323
     46 H16        12.1607   -9.5543   21.0625 H           1 FSN       0.1048
     47 H17        12.6465  -10.5100   18.7268 H           1 FSN       0.0559
     48 H18        14.3208  -10.8626   17.0917 H           1 FSN       0.0599
     49 H19        17.2721  -10.7965   20.1255 H           1 FSN       0.0599
     50 H20        15.5956  -10.5065   21.7482 H           1 FSN       0.0559
     51 H21        17.4781  -11.1683   15.6018 H           1 FSN       0.3180
     52 H22        15.8940  -11.0536   15.8805 H           1 FSN       0.3180
     53 H23        18.5403  -10.9959   18.6328 H           1 FSN       0.3180
     54 H24        18.8836  -11.1365   17.0656 H           1 FSN       0.3180
     55 H25        11.0460  -11.5756   20.8747 H           1 FSN       0.0654
@<TRIPOS>BOND
     1     1     2   2
     2     2     3  am
     3     2    30   1
     4     3     4   1
     5     3    12  am
     6     4     5   1
     7     5     6  ar
     8     5    11  ar
     9     6     7  ar
    10     7     8  ar
    11     8     9   1
    12     8    10  ar
    13    10    11  ar
    14    12    13   2
    15    12    14   1
    16    14    15   1
    17    14    30   1
    18    15    16   1
    19    15    19   1
    20    16    17   1
    21    16    20   1
    22    17    18   1
    23    18    19   1
    24    20    21   1
    25    20    30   1
    26    21    22  ar
    27    21    26  ar
    28    22    23  ar
    29    23    24  ar
    30    24    25  ar
    31    24    27   1
    32    25    26  ar
    33    27    28  ar
    34    27    29  ar
    35     4    31   1
    36     4    32   1
    37     6    33   1
    38     7    34   1
    39    10    35   1
    40    11    36   1
    41    14    37   1
    42    15    38   1
    43    16    39   1
    44    17    40   1
    45    17    41   1
    46    18    42   1
    47    18    43   1
    48    19    44   1
    49    19    45   1
    50    20    46   1
    51    22    47   1
    52    23    48   1
    53    25    49   1
    54    26    50   1
    55    28    51   1
    56    28    52   1
    57    29    53   1
    58    29    54   1
    59    30    55   1
@<TRIPOS>SUBSTRUCTURE
     1  FSN      2

