@<TRIPOS>MOLECULE
1oyt_ligand_022
    55    59
SMALL
GAST_HUCK
****
This file was generated by PARSER (from files_GN.cpp)

@<TRIPOS>ATOM
      1 O21        19.0600  -16.2079    8.1059 O.2         1 FSN      -0.3850
      2 C20        19.5130  -17.0474    8.8813 C.2         1 FSN       0.2221
      3 N19        20.7910  -17.3725    8.9746 N.am        1 FSN      -0.1734
      4 C23        21.8766  -16.7030    8.2921 C.3         1 FSN       0.0905
      5 C24        22.0077  -15.2863    8.7293 C.ar        1 FSN      -0.0199
      6 C32        21.9381  -14.2246    7.7872 C.ar        1 FSN      -0.0597
      7 C31        22.0255  -12.8870    8.2112 C.ar        1 FSN      -0.0348
      8 C30        22.1670  -12.5797    9.5832 C.ar        1 FSN       0.1248
      9 F29        22.2318  -11.3325    9.9786 F           1 FSN      -0.1893
     10 C26        22.2253  -13.6316   10.5281 C.ar        1 FSN      -0.0348
     11 C25        22.1575  -14.9694   10.1039 C.ar        1 FSN      -0.0597
     12 C17        20.9274  -18.3751    9.8283 C.2         1 FSN       0.2202
     13 O18        21.9864  -18.9363   10.0950 O.2         1 FSN      -0.3852
     14 C16        19.6895  -18.7242   10.4746 C.3         1 FSN       0.1237
     15 C15        19.6613  -18.3077   11.9715 C.3         1 FSN       0.0043
     16 N11        18.9142  -17.0394   12.0208 N.4         1 FSN       0.2554
     17 C12        18.3663  -16.9243   13.3960 C.3         1 FSN      -0.0294
     18 C13        18.3322  -18.3445   14.0018 C.3         1 FSN      -0.0072
     19 C14        18.9259  -19.2691   12.9245 C.3         1 FSN      -0.0022
     20 C10        17.9342  -17.0386   10.8937 C.3         1 FSN       0.0362
     21 C7         17.3723  -15.7085   10.4941 C.ar        1 FSN       0.0072
     22 C8         17.8047  -14.4782   11.0491 C.ar        1 FSN      -0.0548
     23 C9         17.2143  -13.2660   10.6670 C.ar        1 FSN      -0.0632
     24 C4         16.1597  -13.2074    9.7142 C.ar        1 FSN       0.0188
     25 C5         15.7575  -14.4501    9.1412 C.ar        1 FSN      -0.0632
     26 C6         16.3552  -15.6599    9.5144 C.ar        1 FSN      -0.0548
     27 C3         15.5248  -11.9966    9.3861 C.cat       1 FSN       0.2318
     28 N1         15.9145  -10.8610    9.8175 N.pl3       1 FSN      -0.2729
     29 N2         14.4750  -11.9371    8.6539 N.pl3       1 FSN      -0.2729
     30 C22        18.6659  -17.8158    9.7606 C.3         1 FSN       0.1316
     31 H1         21.7008  -16.7796    7.2109 H           1 FSN       0.0733
     32 H2         22.8432  -17.1807    8.4847 H           1 FSN       0.0733
     33 H3         21.8347  -14.4282    6.7839 H           1 FSN       0.0548
     34 H4         21.9736  -12.1255    7.5217 H           1 FSN       0.0587
     35 H5         22.3224  -13.4145   11.5252 H           1 FSN       0.0587
     36 H6         22.1865  -15.7189   10.8081 H           1 FSN       0.0548
     37 H7         19.4707  -19.7867   10.3196 H           1 FSN       0.0632
     38 H8         20.6690  -18.1361   12.3664 H           1 FSN       0.0882
     39 H9         19.5836  -16.2837   11.8649 H           1 FSN       0.2057
     40 H10        17.3738  -16.4644   13.4152 H           1 FSN       0.0815
     41 H11        19.0376  -16.2888   13.9791 H           1 FSN       0.0815
     42 H12        17.3117  -18.6439   14.2530 H           1 FSN       0.0319
     43 H13        18.9347  -18.3845   14.9141 H           1 FSN       0.0319
     44 H14        19.6086  -20.0039   13.3506 H           1 FSN       0.0323
     45 H15        18.1254  -19.8053   12.4122 H           1 FSN       0.0323
     46 H16        17.0824  -17.6578   11.1980 H           1 FSN       0.1048
     47 H17        18.5582  -14.4582   11.7407 H           1 FSN       0.0559
     48 H18        17.5508  -12.4149   11.1255 H           1 FSN       0.0599
     49 H19        15.0164  -14.4829    8.4381 H           1 FSN       0.0599
     50 H20        16.0205  -16.5297    9.0850 H           1 FSN       0.0559
     51 H21        15.4376  -10.0893    9.5825 H           1 FSN       0.3180
     52 H22        16.6676  -10.7858   10.3647 H           1 FSN       0.3180
     53 H23        14.0963  -12.7111    8.2943 H           1 FSN       0.3180
     54 H24        14.0802  -11.1059    8.4931 H           1 FSN       0.3180
     55 H25        17.9631  -18.4027    9.1632 H           1 FSN       0.0654
@<TRIPOS>BOND
     1     1     2   2
     2     2     3  am
     3     2    30   1
     4     3     4   1
     5     3    12  am
     6     4     5   1
     7     5     6  ar
     8     5    11  ar
     9     6     7  ar
    10     7     8  ar
    11     8     9   1
    12     8    10  ar
    13    10    11  ar
    14    12    13   2
    15    12    14   1
    16    14    15   1
    17    14    30   1
    18    15    16   1
    19    15    19   1
    20    16    17   1
    21    16    20   1
    22    17    18   1
    23    18    19   1
    24    20    21   1
    25    20    30   1
    26    21    22  ar
    27    21    26  ar
    28    22    23  ar
    29    23    24  ar
    30    24    25  ar
    31    24    27   1
    32    25    26  ar
    33    27    28  ar
    34    27    29  ar
    35     4    31   1
    36     4    32   1
    37     6    33   1
    38     7    34   1
    39    10    35   1
    40    11    36   1
    41    14    37   1
    42    15    38   1
    43    16    39   1
    44    17    40   1
    45    17    41   1
    46    18    42   1
    47    18    43   1
    48    19    44   1
    49    19    45   1
    50    20    46   1
    51    22    47   1
    52    23    48   1
    53    25    49   1
    54    26    50   1
    55    28    51   1
    56    28    52   1
    57    29    53   1
    58    29    54   1
    59    30    55   1
@<TRIPOS>SUBSTRUCTURE
     1  FSN      2

