@<TRIPOS>MOLECULE
1oyt_ligand_001
    55    59
SMALL
GAST_HUCK
****
This file was generated by PARSER (from files_GN.cpp)

@<TRIPOS>ATOM
      1 O21        16.9279  -14.3188   14.4314 O.2         1 FSN      -0.3850
      2 C20        16.4701  -15.1038   15.2597 C.2         1 FSN       0.2221
      3 N19        15.8163  -14.7535   16.3576 N.am        1 FSN      -0.1734
      4 C23        15.3748  -13.4149   16.7055 C.3         1 FSN       0.0905
      5 C24        16.3513  -12.3270   16.4233 C.ar        1 FSN      -0.0199
      6 C32        17.6378  -12.3659   17.0132 C.ar        1 FSN      -0.0597
      7 C31        18.5926  -11.3778   16.7145 C.ar        1 FSN      -0.0348
      8 C30        18.2814  -10.3382   15.8179 C.ar        1 FSN       0.1248
      9 F29        19.1795   -9.4487   15.5054 F           1 FSN      -0.1893
     10 C26        17.0034  -10.2865   15.2248 C.ar        1 FSN      -0.0348
     11 C25        16.0504  -11.2768   15.5210 C.ar        1 FSN      -0.0597
     12 C17        15.5003  -15.8457   17.0392 C.2         1 FSN       0.2202
     13 O18        14.8496  -15.8730   18.0801 O.2         1 FSN      -0.3852
     14 C16        15.9330  -17.0577   16.3862 C.3         1 FSN       0.1237
     15 C15        14.7646  -17.9138   15.8235 C.3         1 FSN       0.0043
     16 N11        14.6842  -17.6035   14.3815 N.4         1 FSN       0.2554
     17 C12        14.0097  -18.7542   13.7323 C.3         1 FSN      -0.0294
     18 C13        14.1203  -19.9556   14.6990 C.3         1 FSN      -0.0072
     19 C14        14.9516  -19.4443   15.8872 C.3         1 FSN      -0.0022
     20 C10        16.0635  -17.2657   13.9210 C.3         1 FSN       0.0362
     21 C7         16.1731  -16.5374   12.6154 C.ar        1 FSN       0.0072
     22 C8         17.4135  -15.9600   12.2525 C.ar        1 FSN      -0.0548
     23 C9         17.5491  -15.2205   11.0646 C.ar        1 FSN      -0.0632
     24 C4         16.4597  -15.0519   10.1704 C.ar        1 FSN       0.0188
     25 C5         15.2285  -15.6603   10.5251 C.ar        1 FSN      -0.0632
     26 C6         15.0868  -16.3810   11.7231 C.ar        1 FSN      -0.0548
     27 C3         16.5747  -14.2805    9.0099 C.cat       1 FSN       0.2318
     28 N1         17.4628  -13.3707    8.8862 N.pl3       1 FSN      -0.2729
     29 N2         15.7863  -14.4084    8.0128 N.pl3       1 FSN      -0.2729
     30 C22        16.6850  -16.5295   15.1497 C.3         1 FSN       0.1316
     31 H1         15.1534  -13.3437   17.7761 H           1 FSN       0.0733
     32 H2         14.4342  -13.2421   16.1812 H           1 FSN       0.0733
     33 H3         17.8859  -13.1205   17.6559 H           1 FSN       0.0548
     34 H4         19.5207  -11.4237   17.1457 H           1 FSN       0.0587
     35 H5         16.7700   -9.5333   14.5735 H           1 FSN       0.0587
     36 H6         15.1351  -11.2380   15.0601 H           1 FSN       0.0548
     37 H7         16.5841  -17.6350   17.0553 H           1 FSN       0.0632
     38 H8         13.8108  -17.6597   16.3000 H           1 FSN       0.0882
     39 H9         14.1045  -16.7707   14.2677 H           1 FSN       0.2057
     40 H10        14.4401  -18.9979   12.7581 H           1 FSN       0.0815
     41 H11        12.9576  -18.5037   13.5792 H           1 FSN       0.0815
     42 H12        14.6097  -20.8105   14.2144 H           1 FSN       0.0319
     43 H13        13.1264  -20.2693   15.0323 H           1 FSN       0.0319
     44 H14        14.5981  -19.8542   16.8376 H           1 FSN       0.0323
     45 H15        16.0020  -19.7218   15.7537 H           1 FSN       0.0323
     46 H16        16.6231  -18.2026   13.7973 H           1 FSN       0.1048
     47 H17        18.2280  -16.0600   12.8667 H           1 FSN       0.0559
     48 H18        18.4591  -14.8050   10.8594 H           1 FSN       0.0599
     49 H19        14.4025  -15.5612    9.9261 H           1 FSN       0.0599
     50 H20        14.1684  -16.7698   11.9416 H           1 FSN       0.0559
     51 H21        17.4853  -12.8477    8.1105 H           1 FSN       0.3180
     52 H22        18.0746  -13.2071    9.5735 H           1 FSN       0.3180
     53 H23        15.1108  -15.0520    8.0169 H           1 FSN       0.3180
     54 H24        15.8887  -13.8583    7.2635 H           1 FSN       0.3180
     55 H25        17.7580  -16.7459   15.2230 H           1 FSN       0.0654
@<TRIPOS>BOND
     1     1     2   2
     2     2     3  am
     3     2    30   1
     4     3     4   1
     5     3    12  am
     6     4     5   1
     7     5     6  ar
     8     5    11  ar
     9     6     7  ar
    10     7     8  ar
    11     8     9   1
    12     8    10  ar
    13    10    11  ar
    14    12    13   2
    15    12    14   1
    16    14    15   1
    17    14    30   1
    18    15    16   1
    19    15    19   1
    20    16    17   1
    21    16    20   1
    22    17    18   1
    23    18    19   1
    24    20    21   1
    25    20    30   1
    26    21    22  ar
    27    21    26  ar
    28    22    23  ar
    29    23    24  ar
    30    24    25  ar
    31    24    27   1
    32    25    26  ar
    33    27    28  ar
    34    27    29  ar
    35     4    31   1
    36     4    32   1
    37     6    33   1
    38     7    34   1
    39    10    35   1
    40    11    36   1
    41    14    37   1
    42    15    38   1
    43    16    39   1
    44    17    40   1
    45    17    41   1
    46    18    42   1
    47    18    43   1
    48    19    44   1
    49    19    45   1
    50    20    46   1
    51    22    47   1
    52    23    48   1
    53    25    49   1
    54    26    50   1
    55    28    51   1
    56    28    52   1
    57    29    53   1
    58    29    54   1
    59    30    55   1
@<TRIPOS>SUBSTRUCTURE
     1  FSN      2

