@<TRIPOS>MOLECULE
1oyt_ligand_040
    55    59
SMALL
GAST_HUCK
****
This file was generated by PARSER (from files_GN.cpp)

@<TRIPOS>ATOM
      1 O21        11.7643  -13.7632   24.5924 O.2         1 FSN      -0.3850
      2 C20        11.6041  -12.5715   24.3660 C.2         1 FSN       0.2221
      3 N19        11.4728  -11.6440   25.2976 N.am        1 FSN      -0.1734
      4 C23        11.5485  -11.8761   26.7236 C.3         1 FSN       0.0905
      5 C24        10.2469  -12.3183   27.2929 C.ar        1 FSN      -0.0199
      6 C32         9.2450  -11.3695   27.6062 C.ar        1 FSN      -0.0597
      7 C31         8.0143  -11.7725   28.1562 C.ar        1 FSN      -0.0348
      8 C30         7.7564  -13.1359   28.3860 C.ar        1 FSN       0.1248
      9 F29         6.6065  -13.5104   28.8804 F           1 FSN      -0.1893
     10 C26         8.7373  -14.0939   28.0672 C.ar        1 FSN      -0.0348
     11 C25         9.9733  -13.6883   27.5289 C.ar        1 FSN      -0.0597
     12 C17        11.2608  -10.4753   24.7236 C.2         1 FSN       0.2202
     13 O18        11.0966   -9.4134   25.3099 O.2         1 FSN      -0.3852
     14 C16        11.1961  -10.5626   23.2876 C.3         1 FSN       0.1237
     15 C15        12.3428   -9.8332   22.5442 C.3         1 FSN       0.0043
     16 N11        13.3363  -10.8611   22.1895 N.4         1 FSN       0.2554
     17 C12        14.0955  -10.3395   21.0194 C.3         1 FSN      -0.0294
     18 C13        13.2796   -9.1665   20.4260 C.3         1 FSN      -0.0072
     19 C14        11.9544   -9.1798   21.2004 C.3         1 FSN      -0.0022
     20 C10        12.6032  -12.1502   22.0122 C.3         1 FSN       0.0362
     21 C7         13.4422  -13.3937   22.0513 C.ar        1 FSN       0.0072
     22 C8         12.8346  -14.6589   21.8798 C.ar        1 FSN      -0.0548
     23 C9         13.5962  -15.8442   21.8606 C.ar        1 FSN      -0.0632
     24 C4         15.0153  -15.8174   21.9549 C.ar        1 FSN       0.0188
     25 C5         15.6194  -14.5410   22.1151 C.ar        1 FSN      -0.0632
     26 C6         14.8524  -13.3644   22.1658 C.ar        1 FSN      -0.0548
     27 C3         15.7895  -16.9948   21.9087 C.cat       1 FSN       0.2318
     28 N1         15.2777  -18.1565   21.7565 N.pl3       1 FSN      -0.2729
     29 N2         17.0640  -16.9989   22.0203 N.pl3       1 FSN      -0.2729
     30 C22        11.4170  -12.0647   23.0263 C.3         1 FSN       0.1316
     31 H1         11.8911  -10.9776   27.2428 H           1 FSN       0.0733
     32 H2         12.3131  -12.6261   26.9347 H           1 FSN       0.0733
     33 H3          9.4037  -10.3761   27.4333 H           1 FSN       0.0548
     34 H4          7.3046  -11.0690   28.3821 H           1 FSN       0.0587
     35 H5          8.5533  -15.0876   28.2261 H           1 FSN       0.0587
     36 H6         10.6707  -14.4030   27.3023 H           1 FSN       0.0548
     37 H7         10.2159  -10.2268   22.9492 H           1 FSN       0.0632
     38 H8         12.8214   -9.0794   23.1833 H           1 FSN       0.0882
     39 H9         13.9735  -10.9701   22.9824 H           1 FSN       0.2057
     40 H10        14.2771  -11.1077   20.2609 H           1 FSN       0.0815
     41 H11        15.0655   -9.9736   21.3742 H           1 FSN       0.0815
     42 H12        13.1098   -9.2847   19.3526 H           1 FSN       0.0319
     43 H13        13.8016   -8.2200   20.5962 H           1 FSN       0.0319
     44 H14        11.5493   -8.1783   21.3403 H           1 FSN       0.0323
     45 H15        11.2218   -9.7894   20.6670 H           1 FSN       0.0323
     46 H16        12.1482  -12.1454   21.0129 H           1 FSN       0.1048
     47 H17        11.8199  -14.7270   21.7683 H           1 FSN       0.0559
     48 H18        13.0923  -16.7281   21.7424 H           1 FSN       0.0599
     49 H19        16.6366  -14.4436   22.1890 H           1 FSN       0.0599
     50 H20        15.3488  -12.4793   22.2769 H           1 FSN       0.0559
     51 H21        15.8276  -18.9142   21.7247 H           1 FSN       0.3180
     52 H22        14.3553  -18.2634   21.6620 H           1 FSN       0.3180
     53 H23        17.5369  -16.2015   22.1328 H           1 FSN       0.3180
     54 H24        17.5391  -17.8055   21.9756 H           1 FSN       0.3180
     55 H25        10.5155  -12.5221   22.6042 H           1 FSN       0.0654
@<TRIPOS>BOND
     1     1     2   2
     2     2     3  am
     3     2    30   1
     4     3     4   1
     5     3    12  am
     6     4     5   1
     7     5     6  ar
     8     5    11  ar
     9     6     7  ar
    10     7     8  ar
    11     8     9   1
    12     8    10  ar
    13    10    11  ar
    14    12    13   2
    15    12    14   1
    16    14    15   1
    17    14    30   1
    18    15    16   1
    19    15    19   1
    20    16    17   1
    21    16    20   1
    22    17    18   1
    23    18    19   1
    24    20    21   1
    25    20    30   1
    26    21    22  ar
    27    21    26  ar
    28    22    23  ar
    29    23    24  ar
    30    24    25  ar
    31    24    27   1
    32    25    26  ar
    33    27    28  ar
    34    27    29  ar
    35     4    31   1
    36     4    32   1
    37     6    33   1
    38     7    34   1
    39    10    35   1
    40    11    36   1
    41    14    37   1
    42    15    38   1
    43    16    39   1
    44    17    40   1
    45    17    41   1
    46    18    42   1
    47    18    43   1
    48    19    44   1
    49    19    45   1
    50    20    46   1
    51    22    47   1
    52    23    48   1
    53    25    49   1
    54    26    50   1
    55    28    51   1
    56    28    52   1
    57    29    53   1
    58    29    54   1
    59    30    55   1
@<TRIPOS>SUBSTRUCTURE
     1  FSN      2

