@<TRIPOS>MOLECULE
1oyt_ligand_064
    55    59
SMALL
GAST_HUCK
****
This file was generated by PARSER (from files_GN.cpp)

@<TRIPOS>ATOM
      1 O21        15.4780   -9.0346   21.3176 O.2         1 FSN      -0.3850
      2 C20        14.6329   -9.8938   21.8655 C.2         1 FSN       0.2221
      3 N19        14.8367  -11.0712   22.2734 N.am        1 FSN      -0.1734
      4 C23        15.9114  -11.9000   21.8743 C.3         1 FSN       0.0905
      5 C24        16.1002  -12.1645   20.4072 C.ar        1 FSN      -0.0199
      6 C32        17.4145  -12.4629   19.9612 C.ar        1 FSN      -0.0597
      7 C31        17.6941  -12.6907   18.6080 C.ar        1 FSN      -0.0348
      8 C30        16.6885  -12.5883   17.6391 C.ar        1 FSN       0.1248
      9 F29        16.9806  -12.7720   16.3889 F           1 FSN      -0.1893
     10 C26        15.3613  -12.3576   18.0707 C.ar        1 FSN      -0.0348
     11 C25        15.0636  -12.1600   19.4412 C.ar        1 FSN      -0.0597
     12 C17        13.7186  -11.5224   22.7768 C.2         1 FSN       0.2202
     13 O18        13.4770  -12.7339   22.9761 O.2         1 FSN      -0.3852
     14 C16        12.6387  -10.5744   22.6509 C.3         1 FSN       0.1237
     15 C15        11.7837  -10.3431   23.9095 C.3         1 FSN       0.0043
     16 N11        12.4490   -9.2997   24.6989 N.4         1 FSN       0.2554
     17 C12        11.3678   -8.6685   25.4982 C.3         1 FSN      -0.0294
     18 C13        10.1070   -8.7170   24.6726 C.3         1 FSN      -0.0072
     19 C14        10.3604   -9.8041   23.6338 C.3         1 FSN      -0.0022
     20 C10        13.2919   -8.4375   23.8165 C.3         1 FSN       0.0362
     21 C7         14.4380   -7.8807   24.6209 C.ar        1 FSN       0.0072
     22 C8         14.3616   -7.5507   26.0084 C.ar        1 FSN      -0.0548
     23 C9         15.4675   -7.1602   26.7888 C.ar        1 FSN      -0.0632
     24 C4         16.7625   -7.0203   26.2238 C.ar        1 FSN       0.0188
     25 C5         16.8189   -7.1709   24.8077 C.ar        1 FSN      -0.0632
     26 C6         15.6967   -7.5821   24.0788 C.ar        1 FSN      -0.0548
     27 C3         17.9097   -6.7597   26.9991 C.cat       1 FSN       0.2318
     28 N1         17.8705   -6.2607   28.1827 N.pl3       1 FSN      -0.2729
     29 N2         19.0956   -7.0104   26.5846 N.pl3       1 FSN      -0.2729
     30 C22        13.4432   -9.2759   22.4229 C.3         1 FSN       0.1316
     31 H1         15.8794  -12.9116   22.3483 H           1 FSN       0.0733
     32 H2         16.8160  -11.4402   22.2815 H           1 FSN       0.0733
     33 H3         18.1582  -12.4509   20.6519 H           1 FSN       0.0548
     34 H4         18.6633  -12.9142   18.3306 H           1 FSN       0.0587
     35 H5         14.6144  -12.3263   17.3837 H           1 FSN       0.0587
     36 H6         14.0995  -11.9776   19.7319 H           1 FSN       0.0548
     37 H7         12.0270  -10.8192   21.7733 H           1 FSN       0.0632
     38 H8         11.7234  -11.2642   24.5157 H           1 FSN       0.0882
     39 H9         13.0708   -9.8165   25.3402 H           1 FSN       0.2057
     40 H10        11.5039   -7.6341   25.7896 H           1 FSN       0.0815
     41 H11        11.2479   -9.2711   26.4140 H           1 FSN       0.0815
     42 H12         9.8905   -7.7558   24.2302 H           1 FSN       0.0319
     43 H13         9.2619   -8.9656   25.3359 H           1 FSN       0.0319
     44 H14         9.6441  -10.6290   23.6882 H           1 FSN       0.0323
     45 H15        10.3018   -9.3616   22.6409 H           1 FSN       0.0323
     46 H16        12.7095   -7.5542   23.5346 H           1 FSN       0.1048
     47 H17        13.5071   -7.5983   26.5165 H           1 FSN       0.0559
     48 H18        15.3150   -6.9770   27.7847 H           1 FSN       0.0599
     49 H19        17.7106   -6.9930   24.3235 H           1 FSN       0.0599
     50 H20        15.7934   -7.7093   23.1088 H           1 FSN       0.0559
     51 H21        18.6706   -6.1160   28.6166 H           1 FSN       0.3180
     52 H22        17.0731   -6.0603   28.5893 H           1 FSN       0.3180
     53 H23        19.2354   -7.4116   25.7491 H           1 FSN       0.3180
     54 H24        19.8204   -6.8349   27.1343 H           1 FSN       0.3180
     55 H25        12.8343   -8.7069   21.6693 H           1 FSN       0.0654
@<TRIPOS>BOND
     1     1     2   2
     2     2     3  am
     3     2    30   1
     4     3     4   1
     5     3    12  am
     6     4     5   1
     7     5     6  ar
     8     5    11  ar
     9     6     7  ar
    10     7     8  ar
    11     8     9   1
    12     8    10  ar
    13    10    11  ar
    14    12    13   2
    15    12    14   1
    16    14    15   1
    17    14    30   1
    18    15    16   1
    19    15    19   1
    20    16    17   1
    21    16    20   1
    22    17    18   1
    23    18    19   1
    24    20    21   1
    25    20    30   1
    26    21    22  ar
    27    21    26  ar
    28    22    23  ar
    29    23    24  ar
    30    24    25  ar
    31    24    27   1
    32    25    26  ar
    33    27    28  ar
    34    27    29  ar
    35     4    31   1
    36     4    32   1
    37     6    33   1
    38     7    34   1
    39    10    35   1
    40    11    36   1
    41    14    37   1
    42    15    38   1
    43    16    39   1
    44    17    40   1
    45    17    41   1
    46    18    42   1
    47    18    43   1
    48    19    44   1
    49    19    45   1
    50    20    46   1
    51    22    47   1
    52    23    48   1
    53    25    49   1
    54    26    50   1
    55    28    51   1
    56    28    52   1
    57    29    53   1
    58    29    54   1
    59    30    55   1
@<TRIPOS>SUBSTRUCTURE
     1  FSN      2

