@<TRIPOS>MOLECULE
1oyt_ligand_060
    55    59
SMALL
GAST_HUCK
****
This file was generated by PARSER (from files_GN.cpp)

@<TRIPOS>ATOM
      1 O21        13.1340  -13.0000   25.7559 O.2         1 FSN      -0.3850
      2 C20        12.7802  -11.8381   25.6939 C.2         1 FSN       0.2221
      3 N19        13.1463  -10.8448   26.4918 N.am        1 FSN      -0.1734
      4 C23        14.1386  -10.9309   27.5540 C.3         1 FSN       0.0905
      5 C24        13.7903  -11.9259   28.5967 C.ar        1 FSN      -0.0199
      6 C32        13.0377  -11.5476   29.7311 C.ar        1 FSN      -0.0597
      7 C31        12.7060  -12.5029   30.7073 C.ar        1 FSN      -0.0348
      8 C30        13.0633  -13.8522   30.5405 C.ar        1 FSN       0.1248
      9 F29        12.7330  -14.7349   31.4319 F           1 FSN      -0.1893
     10 C26        13.8017  -14.2349   29.4104 C.ar        1 FSN      -0.0348
     11 C25        14.1978  -13.2729   28.4758 C.ar        1 FSN      -0.0597
     12 C17        12.5243   -9.7615   26.0777 C.2         1 FSN       0.2202
     13 O18        12.6343   -8.6409   26.5596 O.2         1 FSN      -0.3852
     14 C16        11.6729   -9.9783   24.9419 C.3         1 FSN       0.1237
     15 C15        12.1859   -9.3026   23.6434 C.3         1 FSN       0.0043
     16 N11        12.8440  -10.3573   22.8566 N.4         1 FSN       0.2554
     17 C12        12.7907   -9.9407   21.4307 C.3         1 FSN      -0.0294
     18 C13        11.7100   -8.8449   21.3152 C.3         1 FSN      -0.0072
     19 C14        11.0903   -8.7414   22.7187 C.3         1 FSN      -0.0022
     20 C10        12.1817  -11.6443   23.2116 C.3         1 FSN       0.0362
     21 C7         12.9353  -12.8917   22.8589 C.ar        1 FSN       0.0072
     22 C8         14.3444  -12.9543   22.8211 C.ar        1 FSN      -0.0548
     23 C9         15.0128  -14.1597   22.5358 C.ar        1 FSN      -0.0632
     24 C4         14.3040  -15.3590   22.2616 C.ar        1 FSN       0.0188
     25 C5         12.8875  -15.2799   22.2889 C.ar        1 FSN      -0.0632
     26 C6         12.2246  -14.0780   22.5891 C.ar        1 FSN      -0.0548
     27 C3         14.9690  -16.5645   21.9701 C.cat       1 FSN       0.2318
     28 N1         16.2428  -16.6746   21.9886 N.pl3       1 FSN      -0.2729
     29 N2         14.3550  -17.6405   21.6612 N.pl3       1 FSN      -0.2729
     30 C22        11.8023  -11.4825   24.7090 C.3         1 FSN       0.1316
     31 H1         14.2836   -9.9618   28.0435 H           1 FSN       0.0733
     32 H2         15.1229  -11.1669   27.1549 H           1 FSN       0.0733
     33 H3         12.7694  -10.5700   29.8652 H           1 FSN       0.0548
     34 H4         12.1816  -12.2104   31.5315 H           1 FSN       0.0587
     35 H5         14.0696  -15.2043   29.2731 H           1 FSN       0.0587
     36 H6         14.7466  -13.5762   27.6845 H           1 FSN       0.0548
     37 H7         10.6514   -9.6945   25.1980 H           1 FSN       0.0632
     38 H8         12.9038   -8.4997   23.8528 H           1 FSN       0.0882
     39 H9         13.8197  -10.3953   23.1532 H           1 FSN       0.2057
     40 H10        12.5665  -10.7750   20.7607 H           1 FSN       0.0815
     41 H11        13.7650   -9.5321   21.1494 H           1 FSN       0.0815
     42 H12        10.9576   -9.0935   20.5633 H           1 FSN       0.0319
     43 H13        12.1669   -7.8944   21.0364 H           1 FSN       0.0319
     44 H14        10.8340   -7.7126   22.9825 H           1 FSN       0.0323
     45 H15        10.1923   -9.3611   22.7732 H           1 FSN       0.0323
     46 H16        11.2313  -11.6748   22.6705 H           1 FSN       0.1048
     47 H17        14.9007  -12.1276   23.0305 H           1 FSN       0.0559
     48 H18        16.0341  -14.1448   22.5453 H           1 FSN       0.0599
     49 H19        12.3081  -16.0993   22.1025 H           1 FSN       0.0599
     50 H20        11.2073  -14.0696   22.6041 H           1 FSN       0.0559
     51 H21        16.6440  -17.4950   21.7846 H           1 FSN       0.3180
     52 H22        16.7834  -15.9450   22.2043 H           1 FSN       0.3180
     53 H23        13.4223  -17.6645   21.6167 H           1 FSN       0.3180
     54 H24        14.8407  -18.4184   21.4715 H           1 FSN       0.3180
     55 H25        10.8807  -12.0174   24.9447 H           1 FSN       0.0654
@<TRIPOS>BOND
     1     1     2   2
     2     2     3  am
     3     2    30   1
     4     3     4   1
     5     3    12  am
     6     4     5   1
     7     5     6  ar
     8     5    11  ar
     9     6     7  ar
    10     7     8  ar
    11     8     9   1
    12     8    10  ar
    13    10    11  ar
    14    12    13   2
    15    12    14   1
    16    14    15   1
    17    14    30   1
    18    15    16   1
    19    15    19   1
    20    16    17   1
    21    16    20   1
    22    17    18   1
    23    18    19   1
    24    20    21   1
    25    20    30   1
    26    21    22  ar
    27    21    26  ar
    28    22    23  ar
    29    23    24  ar
    30    24    25  ar
    31    24    27   1
    32    25    26  ar
    33    27    28  ar
    34    27    29  ar
    35     4    31   1
    36     4    32   1
    37     6    33   1
    38     7    34   1
    39    10    35   1
    40    11    36   1
    41    14    37   1
    42    15    38   1
    43    16    39   1
    44    17    40   1
    45    17    41   1
    46    18    42   1
    47    18    43   1
    48    19    44   1
    49    19    45   1
    50    20    46   1
    51    22    47   1
    52    23    48   1
    53    25    49   1
    54    26    50   1
    55    28    51   1
    56    28    52   1
    57    29    53   1
    58    29    54   1
    59    30    55   1
@<TRIPOS>SUBSTRUCTURE
     1  FSN      2

