@<TRIPOS>MOLECULE
1oyt_ligand_047
    55    59
SMALL
GAST_HUCK
****
This file was generated by PARSER (from files_GN.cpp)

@<TRIPOS>ATOM
      1 O21        12.4602  -12.5183   22.9800 O.2         1 FSN      -0.3850
      2 C20        11.7289  -11.6839   23.5090 C.2         1 FSN       0.2221
      3 N19        11.1435  -11.7891   24.7175 N.am        1 FSN      -0.1734
      4 C23        11.3854  -12.8827   25.6365 C.3         1 FSN       0.0905
      5 C24        10.3242  -13.3286   26.5972 C.ar        1 FSN      -0.0199
      6 C32         9.8384  -12.4144   27.5576 C.ar        1 FSN      -0.0597
      7 C31         8.8066  -12.7945   28.4640 C.ar        1 FSN      -0.0348
      8 C30         8.3688  -14.1360   28.5261 C.ar        1 FSN       0.1248
      9 F29         7.5112  -14.5397   29.4265 F           1 FSN      -0.1893
     10 C26         8.9652  -15.0901   27.6665 C.ar        1 FSN      -0.0348
     11 C25         9.9055  -14.6811   26.6957 C.ar        1 FSN      -0.0597
     12 C17        10.5270  -10.6548   25.0098 C.2         1 FSN       0.2202
     13 O18         9.9234  -10.3646   26.0774 O.2         1 FSN      -0.3852
     14 C16        10.7836   -9.6662   24.0044 C.3         1 FSN       0.1237
     15 C15        11.9230   -8.7199   24.4519 C.3         1 FSN       0.0043
     16 N11        13.0274   -8.8805   23.4940 N.4         1 FSN       0.2554
     17 C12        13.6609   -7.5404   23.4638 C.3         1 FSN      -0.0294
     18 C13        12.8906   -6.5789   24.4030 C.3         1 FSN      -0.0072
     19 C14        11.5257   -7.2446   24.5443 C.3         1 FSN      -0.0022
     20 C10        12.4830   -9.5178   22.2490 C.3         1 FSN       0.0362
     21 C7         13.4298  -10.1130   21.2320 C.ar        1 FSN       0.0072
     22 C8         12.9455  -11.0179   20.2490 C.ar        1 FSN      -0.0548
     23 C9         13.7494  -11.4460   19.1791 C.ar        1 FSN      -0.0632
     24 C4         15.0594  -10.9465   18.9917 C.ar        1 FSN       0.0188
     25 C5         15.5500  -10.0504   19.9758 C.ar        1 FSN      -0.0632
     26 C6         14.7653   -9.6601   21.0764 C.ar        1 FSN      -0.0548
     27 C3         15.8139  -11.3132   17.8853 C.cat       1 FSN       0.2318
     28 N1         16.8361  -10.6444   17.4817 N.pl3       1 FSN      -0.2729
     29 N2         15.5427  -12.3363   17.1531 N.pl3       1 FSN      -0.2729
     30 C22        11.3867  -10.4566   22.8261 C.3         1 FSN       0.1316
     31 H1         12.2132  -12.5427   26.2506 H           1 FSN       0.0733
     32 H2         11.7286  -13.7519   25.0882 H           1 FSN       0.0733
     33 H3         10.2650  -11.4483   27.4926 H           1 FSN       0.0548
     34 H4          8.3804  -12.1169   29.1059 H           1 FSN       0.0587
     35 H5          8.7535  -16.0904   27.7474 H           1 FSN       0.0587
     36 H6         10.3323  -15.3827   26.1005 H           1 FSN       0.0548
     37 H7          9.8713   -9.1617   23.6874 H           1 FSN       0.0632
     38 H8         12.3378   -9.0029   25.4290 H           1 FSN       0.0882
     39 H9         13.6853   -9.5449   23.9048 H           1 FSN       0.2057
     40 H10        13.6499   -7.1244   22.4606 H           1 FSN       0.0815
     41 H11        14.6900   -7.6405   23.7969 H           1 FSN       0.0815
     42 H12        12.8193   -5.5653   23.9988 H           1 FSN       0.0319
     43 H13        13.3686   -6.5356   25.3878 H           1 FSN       0.0319
     44 H14        11.0517   -7.0216   25.5063 H           1 FSN       0.0323
     45 H15        10.8673   -6.9416   23.7258 H           1 FSN       0.0323
     46 H16        11.9473   -8.7448   21.6792 H           1 FSN       0.1048
     47 H17        11.9959  -11.3881   20.2780 H           1 FSN       0.0559
     48 H18        13.3396  -12.1097   18.5201 H           1 FSN       0.0599
     49 H19        16.4934   -9.6581   19.9090 H           1 FSN       0.0599
     50 H20        15.1812   -9.0049   21.7382 H           1 FSN       0.0559
     51 H21        17.3011  -10.9273   16.7258 H           1 FSN       0.3180
     52 H22        17.0832   -9.8567   17.9123 H           1 FSN       0.3180
     53 H23        14.8180  -12.8826   17.3543 H           1 FSN       0.3180
     54 H24        16.0754  -12.5299   16.4155 H           1 FSN       0.3180
     55 H25        10.6143  -10.6599   22.0784 H           1 FSN       0.0654
@<TRIPOS>BOND
     1     1     2   2
     2     2     3  am
     3     2    30   1
     4     3     4   1
     5     3    12  am
     6     4     5   1
     7     5     6  ar
     8     5    11  ar
     9     6     7  ar
    10     7     8  ar
    11     8     9   1
    12     8    10  ar
    13    10    11  ar
    14    12    13   2
    15    12    14   1
    16    14    15   1
    17    14    30   1
    18    15    16   1
    19    15    19   1
    20    16    17   1
    21    16    20   1
    22    17    18   1
    23    18    19   1
    24    20    21   1
    25    20    30   1
    26    21    22  ar
    27    21    26  ar
    28    22    23  ar
    29    23    24  ar
    30    24    25  ar
    31    24    27   1
    32    25    26  ar
    33    27    28  ar
    34    27    29  ar
    35     4    31   1
    36     4    32   1
    37     6    33   1
    38     7    34   1
    39    10    35   1
    40    11    36   1
    41    14    37   1
    42    15    38   1
    43    16    39   1
    44    17    40   1
    45    17    41   1
    46    18    42   1
    47    18    43   1
    48    19    44   1
    49    19    45   1
    50    20    46   1
    51    22    47   1
    52    23    48   1
    53    25    49   1
    54    26    50   1
    55    28    51   1
    56    28    52   1
    57    29    53   1
    58    29    54   1
    59    30    55   1
@<TRIPOS>SUBSTRUCTURE
     1  FSN      2

