@<TRIPOS>MOLECULE
1oyt_ligand_043
    55    59
SMALL
GAST_HUCK
****
This file was generated by PARSER (from files_GN.cpp)

@<TRIPOS>ATOM
      1 O21        18.7629  -15.3250   10.4983 O.2         1 FSN      -0.3850
      2 C20        19.0559  -16.1837   11.3187 C.2         1 FSN       0.2221
      3 N19        20.2394  -16.2951   11.9017 N.am        1 FSN      -0.1734
      4 C23        21.3488  -15.3663   11.7651 C.3         1 FSN       0.0905
      5 C24        21.5046  -14.4156   12.9084 C.ar        1 FSN      -0.0199
      6 C32        20.3801  -13.9687   13.6403 C.ar        1 FSN      -0.0597
      7 C31        20.4990  -13.0857   14.7287 C.ar        1 FSN      -0.0348
      8 C30        21.7699  -12.6112   15.1018 C.ar        1 FSN       0.1248
      9 F29        21.8846  -11.7811   16.1048 F           1 FSN      -0.1893
     10 C26        22.8987  -13.0215   14.3718 C.ar        1 FSN      -0.0348
     11 C25        22.7678  -13.9031   13.2783 C.ar        1 FSN      -0.0597
     12 C17        20.2381  -17.3585   12.6830 C.2         1 FSN       0.2202
     13 O18        21.1923  -17.7404   13.3498 O.2         1 FSN      -0.3852
     14 C16        18.9682  -18.0433   12.7051 C.3         1 FSN       0.1237
     15 C15        18.2441  -17.9511   14.0752 C.3         1 FSN       0.0043
     16 N11        17.2767  -16.8476   13.9478 N.4         1 FSN       0.2554
     17 C12        16.2286  -17.0786   14.9719 C.3         1 FSN      -0.0294
     18 C13        16.2542  -18.5844   15.3189 C.3         1 FSN      -0.0072
     19 C14        17.4004  -19.1804   14.4815 C.3         1 FSN      -0.0022
     20 C10        16.8440  -16.8052   12.5177 C.3         1 FSN       0.0362
     21 C7         16.1615  -15.5350   12.1005 C.ar        1 FSN       0.0072
     22 C8         16.5793  -14.2736   12.5834 C.ar        1 FSN      -0.0548
     23 C9         15.9954  -13.0788   12.1393 C.ar        1 FSN      -0.0632
     24 C4         14.9057  -13.0833   11.2307 C.ar        1 FSN       0.0188
     25 C5         14.4378  -14.3566   10.8052 C.ar        1 FSN      -0.0632
     26 C6         15.0558  -15.5506   11.2189 C.ar        1 FSN      -0.0548
     27 C3         14.3500  -11.8819   10.7680 C.cat       1 FSN       0.2318
     28 N1         14.7215  -10.7293   11.1788 N.pl3       1 FSN      -0.2729
     29 N2         13.4394  -11.8446    9.8680 N.pl3       1 FSN      -0.2729
     30 C22        18.1203  -17.2139   11.7165 C.3         1 FSN       0.1316
     31 H1         21.2432  -14.7690   10.8559 H           1 FSN       0.0733
     32 H2         22.2644  -15.9504   11.6421 H           1 FSN       0.0733
     33 H3         19.4590  -14.3074   13.3933 H           1 FSN       0.0548
     34 H4         19.6565  -12.7914   15.2397 H           1 FSN       0.0587
     35 H5         23.8208  -12.6756   14.6260 H           1 FSN       0.0587
     36 H6         23.6019  -14.1765   12.7566 H           1 FSN       0.0548
     37 H7         19.0920  -19.0779   12.3687 H           1 FSN       0.0632
     38 H8         18.9445  -17.7240   14.8887 H           1 FSN       0.0882
     39 H9         17.7678  -15.9791   14.1685 H           1 FSN       0.2057
     40 H10        15.2380  -16.7663   14.6293 H           1 FSN       0.0815
     41 H11        16.4802  -16.4905   15.8593 H           1 FSN       0.0815
     42 H12        15.3023  -19.0626   15.0706 H           1 FSN       0.0319
     43 H13        16.4504  -18.7255   16.3862 H           1 FSN       0.0319
     44 H14        17.9910  -19.8994   15.0549 H           1 FSN       0.0323
     45 H15        16.9905  -19.6820   13.6001 H           1 FSN       0.0323
     46 H16        16.1290  -17.6253   12.3717 H           1 FSN       0.1048
     47 H17        17.3094  -14.2106   13.2858 H           1 FSN       0.0559
     48 H18        16.3870  -12.2023   12.5016 H           1 FSN       0.0599
     49 H19        13.6412  -14.4354   10.1731 H           1 FSN       0.0599
     50 H20        14.6951  -16.4435   10.8722 H           1 FSN       0.0559
     51 H21        14.3425   -9.9625   10.8024 H           1 FSN       0.3180
     52 H22        15.3821  -10.6410   11.8339 H           1 FSN       0.3180
     53 H23        13.1064  -12.6309    9.4938 H           1 FSN       0.3180
     54 H24        13.1250  -11.0174    9.5737 H           1 FSN       0.3180
     55 H25        17.8508  -17.8076   10.8364 H           1 FSN       0.0654
@<TRIPOS>BOND
     1     1     2   2
     2     2     3  am
     3     2    30   1
     4     3     4   1
     5     3    12  am
     6     4     5   1
     7     5     6  ar
     8     5    11  ar
     9     6     7  ar
    10     7     8  ar
    11     8     9   1
    12     8    10  ar
    13    10    11  ar
    14    12    13   2
    15    12    14   1
    16    14    15   1
    17    14    30   1
    18    15    16   1
    19    15    19   1
    20    16    17   1
    21    16    20   1
    22    17    18   1
    23    18    19   1
    24    20    21   1
    25    20    30   1
    26    21    22  ar
    27    21    26  ar
    28    22    23  ar
    29    23    24  ar
    30    24    25  ar
    31    24    27   1
    32    25    26  ar
    33    27    28  ar
    34    27    29  ar
    35     4    31   1
    36     4    32   1
    37     6    33   1
    38     7    34   1
    39    10    35   1
    40    11    36   1
    41    14    37   1
    42    15    38   1
    43    16    39   1
    44    17    40   1
    45    17    41   1
    46    18    42   1
    47    18    43   1
    48    19    44   1
    49    19    45   1
    50    20    46   1
    51    22    47   1
    52    23    48   1
    53    25    49   1
    54    26    50   1
    55    28    51   1
    56    28    52   1
    57    29    53   1
    58    29    54   1
    59    30    55   1
@<TRIPOS>SUBSTRUCTURE
     1  FSN      2

