@<TRIPOS>MOLECULE
1oyt_ligand_010
    55    59
SMALL
GAST_HUCK
****
This file was generated by PARSER (from files_GN.cpp)

@<TRIPOS>ATOM
      1 O21        14.4904  -11.2928   14.5300 O.2         1 FSN      -0.3850
      2 C20        15.4485  -12.0093   14.7854 C.2         1 FSN       0.2221
      3 N19        15.6418  -12.6128   15.9454 N.am        1 FSN      -0.1734
      4 C23        14.7409  -12.5780   17.0820 C.3         1 FSN       0.0905
      5 C24        14.0661  -13.8590   17.4531 C.ar        1 FSN      -0.0199
      6 C32        14.4452  -15.1279   16.9415 C.ar        1 FSN      -0.0597
      7 C31        13.7635  -16.2966   17.3346 C.ar        1 FSN      -0.0348
      8 C30        12.6962  -16.2236   18.2452 C.ar        1 FSN       0.1248
      9 F29        12.0678  -17.3090   18.6135 F           1 FSN      -0.1893
     10 C26        12.3124  -14.9758   18.7681 C.ar        1 FSN      -0.0348
     11 C25        12.9908  -13.8050   18.3788 C.ar        1 FSN      -0.0597
     12 C17        16.8149  -13.2258   15.9249 C.2         1 FSN       0.2202
     13 O18        17.2895  -13.8418   16.8701 O.2         1 FSN      -0.3852
     14 C16        17.4930  -13.1146   14.6586 C.3         1 FSN       0.1237
     15 C15        17.5404  -14.4316   13.8331 C.3         1 FSN       0.0043
     16 N11        16.5006  -14.3154   12.7932 N.4         1 FSN       0.2554
     17 C12        16.9055  -15.1901   11.6561 C.3         1 FSN      -0.0294
     18 C13        18.3759  -15.5962   11.8873 C.3         1 FSN      -0.0072
     19 C14        18.8422  -14.7112   13.0512 C.3         1 FSN      -0.0022
     20 C10        16.3094  -12.8618   12.5040 C.3         1 FSN       0.0362
     21 C7         15.0304  -12.4783   11.8220 C.ar        1 FSN       0.0072
     22 C8         14.2060  -13.4030   11.1330 C.ar        1 FSN      -0.0548
     23 C9         13.0136  -12.9921   10.5151 C.ar        1 FSN      -0.0632
     24 C4         12.5788  -11.6442   10.5855 C.ar        1 FSN       0.0188
     25 C5         13.3952  -10.7259   11.2892 C.ar        1 FSN      -0.0632
     26 C6         14.6088  -11.1270   11.8644 C.ar        1 FSN      -0.0548
     27 C3         11.3760  -11.2406    9.9993 C.cat       1 FSN       0.2318
     28 N1         10.8929  -11.8211    8.9695 N.pl3       1 FSN      -0.2729
     29 N2         10.6943  -10.2688   10.4692 N.pl3       1 FSN      -0.2729
     30 C22        16.5632  -12.1660   13.8768 C.3         1 FSN       0.1316
     31 H1         13.9573  -11.8376   16.8925 H           1 FSN       0.0733
     32 H2         15.2885  -12.2132   17.9574 H           1 FSN       0.0733
     33 H3         15.2179  -15.2185   16.2833 H           1 FSN       0.0548
     34 H4         14.0572  -17.2028   16.9593 H           1 FSN       0.0587
     35 H5         11.5383  -14.9128   19.4358 H           1 FSN       0.0587
     36 H6         12.6874  -12.9064   18.7667 H           1 FSN       0.0548
     37 H7         18.4887  -12.6817   14.7978 H           1 FSN       0.0632
     38 H8         17.3146  -15.3038   14.4588 H           1 FSN       0.0882
     39 H9         15.6313  -14.6719   13.1919 H           1 FSN       0.2057
     40 H10        16.7910  -14.6912   10.6899 H           1 FSN       0.0815
     41 H11        16.2676  -16.0796   11.6531 H           1 FSN       0.0815
     42 H12        18.9877  -15.4325   10.9958 H           1 FSN       0.0319
     43 H13        18.4360  -16.6494   12.1695 H           1 FSN       0.0319
     44 H14        19.5854  -15.2256   13.6610 H           1 FSN       0.0323
     45 H15        19.2770  -13.7911   12.6625 H           1 FSN       0.0323
     46 H16        17.1185  -12.5398   11.8337 H           1 FSN       0.1048
     47 H17        14.4612  -14.3906   11.0745 H           1 FSN       0.0559
     48 H18        12.4466  -13.6991   10.0341 H           1 FSN       0.0599
     49 H19        13.1220   -9.7454   11.3780 H           1 FSN       0.0599
     50 H20        15.1767  -10.4256   12.3509 H           1 FSN       0.0559
     51 H21        10.0880  -11.5226    8.5985 H           1 FSN       0.3180
     52 H22        11.3477  -12.5346    8.5702 H           1 FSN       0.3180
     53 H23        10.9884   -9.8150   11.2317 H           1 FSN       0.3180
     54 H24         9.8873  -10.0180   10.0663 H           1 FSN       0.3180
     55 H25        17.0363  -11.1897   13.7292 H           1 FSN       0.0654
@<TRIPOS>BOND
     1     1     2   2
     2     2     3  am
     3     2    30   1
     4     3     4   1
     5     3    12  am
     6     4     5   1
     7     5     6  ar
     8     5    11  ar
     9     6     7  ar
    10     7     8  ar
    11     8     9   1
    12     8    10  ar
    13    10    11  ar
    14    12    13   2
    15    12    14   1
    16    14    15   1
    17    14    30   1
    18    15    16   1
    19    15    19   1
    20    16    17   1
    21    16    20   1
    22    17    18   1
    23    18    19   1
    24    20    21   1
    25    20    30   1
    26    21    22  ar
    27    21    26  ar
    28    22    23  ar
    29    23    24  ar
    30    24    25  ar
    31    24    27   1
    32    25    26  ar
    33    27    28  ar
    34    27    29  ar
    35     4    31   1
    36     4    32   1
    37     6    33   1
    38     7    34   1
    39    10    35   1
    40    11    36   1
    41    14    37   1
    42    15    38   1
    43    16    39   1
    44    17    40   1
    45    17    41   1
    46    18    42   1
    47    18    43   1
    48    19    44   1
    49    19    45   1
    50    20    46   1
    51    22    47   1
    52    23    48   1
    53    25    49   1
    54    26    50   1
    55    28    51   1
    56    28    52   1
    57    29    53   1
    58    29    54   1
    59    30    55   1
@<TRIPOS>SUBSTRUCTURE
     1  FSN      2

