@<TRIPOS>MOLECULE
1oyt_ligand_030
    55    59
SMALL
GAST_HUCK
****
This file was generated by PARSER (from files_GN.cpp)

@<TRIPOS>ATOM
      1 O21        21.6099  -17.2706    6.6663 O.2         1 FSN      -0.3850
      2 C20        21.2693  -17.4331    7.8316 C.2         1 FSN       0.2221
      3 N19        21.1841  -18.5950    8.4557 N.am        1 FSN      -0.1734
      4 C23        21.5087  -19.8781    7.8809 C.3         1 FSN       0.0905
      5 C24        20.2956  -20.6446    7.4953 C.ar        1 FSN      -0.0199
      6 C32        19.9754  -21.8676    8.1289 C.ar        1 FSN      -0.0597
      7 C31        18.8422  -22.6036    7.7338 C.ar        1 FSN      -0.0348
      8 C30        18.0158  -22.1291    6.6980 C.ar        1 FSN       0.1248
      9 F29        16.9739  -22.8182    6.3279 F           1 FSN      -0.1893
     10 C26        18.3248  -20.9161    6.0581 C.ar        1 FSN      -0.0348
     11 C25        19.4577  -20.1831    6.4532 C.ar        1 FSN      -0.0597
     12 C17        20.7787  -18.3997    9.6986 C.2         1 FSN       0.2202
     13 O18        20.5881  -19.2840   10.5218 O.2         1 FSN      -0.3852
     14 C16        20.5435  -17.0111   10.0018 C.3         1 FSN       0.1237
     15 C15        21.4172  -16.3917   11.1310 C.3         1 FSN       0.0043
     16 N11        22.1032  -15.2199   10.5421 N.4         1 FSN       0.2554
     17 C12        21.4778  -14.0096   11.1228 C.3         1 FSN      -0.0294
     18 C13        21.1344  -14.4303   12.5547 C.3         1 FSN      -0.0072
     19 C14        20.6599  -15.8806   12.3865 C.3         1 FSN      -0.0022
     20 C10        22.1137  -15.3301    9.0548 C.3         1 FSN       0.0362
     21 C7         23.4924  -15.6747    8.5607 C.ar        1 FSN       0.0072
     22 C8         24.1810  -16.8218    9.0173 C.ar        1 FSN      -0.0548
     23 C9         25.4512  -17.1591    8.5172 C.ar        1 FSN      -0.0632
     24 C4         26.0981  -16.3679    7.5321 C.ar        1 FSN       0.0188
     25 C5         25.4083  -15.2062    7.0941 C.ar        1 FSN      -0.0632
     26 C6         24.1376  -14.8675    7.5959 C.ar        1 FSN      -0.0548
     27 C3         27.3577  -16.7194    7.0152 C.cat       1 FSN       0.2318
     28 N1         27.8719  -16.1390    5.9991 N.pl3       1 FSN      -0.2729
     29 N2         28.0807  -17.6449    7.5198 N.pl3       1 FSN      -0.2729
     30 C22        20.9621  -16.3191    8.6936 C.3         1 FSN       0.1316
     31 H1         22.1167  -20.4409    8.5946 H           1 FSN       0.0733
     32 H2         22.1312  -19.7656    6.9905 H           1 FSN       0.0733
     33 H3         20.5687  -22.2339    8.8780 H           1 FSN       0.0548
     34 H4         18.6274  -23.4894    8.1972 H           1 FSN       0.0587
     35 H5         17.7312  -20.5661    5.3025 H           1 FSN       0.0587
     36 H6         19.6721  -19.3117    5.9644 H           1 FSN       0.0548
     37 H7         19.4722  -16.8692   10.1822 H           1 FSN       0.0632
     38 H8         22.1880  -17.0968   11.4586 H           1 FSN       0.0882
     39 H9         23.0696  -15.2352   10.8760 H           1 FSN       0.2057
     40 H10        20.5650  -13.7204   10.5915 H           1 FSN       0.0815
     41 H11        22.1803  -13.1735   11.1165 H           1 FSN       0.0815
     42 H12        20.3648  -13.7924   12.9942 H           1 FSN       0.0319
     43 H13        22.0308  -14.3875   13.1766 H           1 FSN       0.0319
     44 H14        20.8993  -16.4713   13.2743 H           1 FSN       0.0323
     45 H15        19.5769  -15.8938   12.2444 H           1 FSN       0.0323
     46 H16        21.8356  -14.3605    8.6231 H           1 FSN       0.1048
     47 H17        23.7533  -17.4423    9.7063 H           1 FSN       0.0559
     48 H18        25.8892  -18.0108    8.8762 H           1 FSN       0.0599
     49 H19        25.8205  -14.5830    6.3984 H           1 FSN       0.0599
     50 H20        23.6796  -14.0261    7.2362 H           1 FSN       0.0559
     51 H21        28.7116  -16.4048    5.6827 H           1 FSN       0.3180
     52 H22        27.4144  -15.4534    5.5604 H           1 FSN       0.3180
     53 H23        27.7917  -18.1203    8.2695 H           1 FSN       0.3180
     54 H24        28.9106  -17.8509    7.1408 H           1 FSN       0.3180
     55 H25        20.1084  -15.7732    8.2756 H           1 FSN       0.0654
@<TRIPOS>BOND
     1     1     2   2
     2     2     3  am
     3     2    30   1
     4     3     4   1
     5     3    12  am
     6     4     5   1
     7     5     6  ar
     8     5    11  ar
     9     6     7  ar
    10     7     8  ar
    11     8     9   1
    12     8    10  ar
    13    10    11  ar
    14    12    13   2
    15    12    14   1
    16    14    15   1
    17    14    30   1
    18    15    16   1
    19    15    19   1
    20    16    17   1
    21    16    20   1
    22    17    18   1
    23    18    19   1
    24    20    21   1
    25    20    30   1
    26    21    22  ar
    27    21    26  ar
    28    22    23  ar
    29    23    24  ar
    30    24    25  ar
    31    24    27   1
    32    25    26  ar
    33    27    28  ar
    34    27    29  ar
    35     4    31   1
    36     4    32   1
    37     6    33   1
    38     7    34   1
    39    10    35   1
    40    11    36   1
    41    14    37   1
    42    15    38   1
    43    16    39   1
    44    17    40   1
    45    17    41   1
    46    18    42   1
    47    18    43   1
    48    19    44   1
    49    19    45   1
    50    20    46   1
    51    22    47   1
    52    23    48   1
    53    25    49   1
    54    26    50   1
    55    28    51   1
    56    28    52   1
    57    29    53   1
    58    29    54   1
    59    30    55   1
@<TRIPOS>SUBSTRUCTURE
     1  FSN      2

