@<TRIPOS>MOLECULE
1oyt_ligand_023
    55    59
SMALL
GAST_HUCK
****
This file was generated by PARSER (from files_GN.cpp)

@<TRIPOS>ATOM
      1 O21        22.9423  -14.7591   23.7063 O.2         1 FSN      -0.3850
      2 C20        21.8215  -15.2106   23.5139 C.2         1 FSN       0.2221
      3 N19        20.8019  -14.4861   23.0899 N.am        1 FSN      -0.1734
      4 C23        20.8869  -13.1071   22.6571 C.3         1 FSN       0.0905
      5 C24        20.4394  -12.9115   21.2520 C.ar        1 FSN      -0.0199
      6 C32        20.9250  -13.7532   20.2219 C.ar        1 FSN      -0.0597
      7 C31        20.4859  -13.5906   18.8967 C.ar        1 FSN      -0.0348
      8 C30        19.5657  -12.5759   18.5786 C.ar        1 FSN       0.1248
      9 F29        19.1481  -12.4293   17.3518 F           1 FSN      -0.1893
     10 C26        19.0905  -11.7195   19.5908 C.ar        1 FSN      -0.0348
     11 C25        19.5284  -11.8840   20.9164 C.ar        1 FSN      -0.0597
     12 C17        19.7034  -15.2137   23.1274 C.2         1 FSN       0.2202
     13 O18        18.5866  -14.8127   22.8166 O.2         1 FSN      -0.3852
     14 C16        19.9446  -16.5695   23.5501 C.3         1 FSN       0.1237
     15 C15        19.7693  -17.6183   22.4202 C.3         1 FSN       0.0043
     16 N11        21.1254  -17.9616   21.9431 N.4         1 FSN       0.2554
     17 C12        21.0121  -19.3212   21.3426 C.3         1 FSN      -0.0294
     18 C13        19.7322  -19.9856   21.8911 C.3         1 FSN      -0.0072
     19 C14        19.1366  -18.9570   22.8638 C.3         1 FSN      -0.0022
     20 C10        22.0787  -17.7576   23.0826 C.3         1 FSN       0.0362
     21 C7         23.5412  -17.6297   22.7403 C.ar        1 FSN       0.0072
     22 C8         24.0575  -17.9135   21.4528 C.ar        1 FSN      -0.0548
     23 C9         25.4348  -17.8162   21.1812 C.ar        1 FSN      -0.0632
     24 C4         26.3563  -17.3631   22.1588 C.ar        1 FSN       0.0188
     25 C5         25.8362  -17.0766   23.4448 C.ar        1 FSN      -0.0632
     26 C6         24.4697  -17.2425   23.7361 C.ar        1 FSN      -0.0548
     27 C3         27.7218  -17.2093   21.8689 C.cat       1 FSN       0.2318
     28 N1         28.5141  -16.5137   22.5876 N.pl3       1 FSN      -0.2729
     29 N2         28.2728  -17.7660   20.8564 N.pl3       1 FSN      -0.2729
     30 C22        21.4511  -16.5638   23.8797 C.3         1 FSN       0.1316
     31 H1         21.9121  -12.7275   22.7164 H           1 FSN       0.0733
     32 H2         20.2941  -12.5063   23.3515 H           1 FSN       0.0733
     33 H3         21.5744  -14.5125   20.4375 H           1 FSN       0.0548
     34 H4         20.8369  -14.2172   18.1685 H           1 FSN       0.0587
     35 H5         18.4251  -10.9773   19.3664 H           1 FSN       0.0587
     36 H6         19.1705  -11.2522   21.6381 H           1 FSN       0.0548
     37 H7         19.3302  -16.7987   24.4294 H           1 FSN       0.0632
     38 H8         19.1839  -17.2184   21.5809 H           1 FSN       0.0882
     39 H9         21.3775  -17.2981   21.2057 H           1 FSN       0.2057
     40 H10        21.8835  -19.9444   21.5552 H           1 FSN       0.0815
     41 H11        20.9316  -19.2101   20.2569 H           1 FSN       0.0815
     42 H12        19.9596  -20.9220   22.4074 H           1 FSN       0.0319
     43 H13        19.0288  -20.1924   21.0791 H           1 FSN       0.0319
     44 H14        18.0444  -18.9247   22.8034 H           1 FSN       0.0323
     45 H15        19.4297  -19.2088   23.8880 H           1 FSN       0.0323
     46 H16        22.0115  -18.6382   23.7347 H           1 FSN       0.1048
     47 H17        23.4460  -18.2168   20.6957 H           1 FSN       0.0559
     48 H18        25.7495  -18.0650   20.2422 H           1 FSN       0.0599
     49 H19        26.4453  -16.7393   24.1942 H           1 FSN       0.0599
     50 H20        24.1519  -17.0508   24.6912 H           1 FSN       0.0559
     51 H21        29.4165  -16.4367   22.3467 H           1 FSN       0.3180
     52 H22        28.2079  -16.0657   23.3479 H           1 FSN       0.3180
     53 H23        27.7749  -18.3038   20.2774 H           1 FSN       0.3180
     54 H24        29.1857  -17.6421   20.6942 H           1 FSN       0.3180
     55 H25        21.6012  -16.7052   24.9551 H           1 FSN       0.0654
@<TRIPOS>BOND
     1     1     2   2
     2     2     3  am
     3     2    30   1
     4     3     4   1
     5     3    12  am
     6     4     5   1
     7     5     6  ar
     8     5    11  ar
     9     6     7  ar
    10     7     8  ar
    11     8     9   1
    12     8    10  ar
    13    10    11  ar
    14    12    13   2
    15    12    14   1
    16    14    15   1
    17    14    30   1
    18    15    16   1
    19    15    19   1
    20    16    17   1
    21    16    20   1
    22    17    18   1
    23    18    19   1
    24    20    21   1
    25    20    30   1
    26    21    22  ar
    27    21    26  ar
    28    22    23  ar
    29    23    24  ar
    30    24    25  ar
    31    24    27   1
    32    25    26  ar
    33    27    28  ar
    34    27    29  ar
    35     4    31   1
    36     4    32   1
    37     6    33   1
    38     7    34   1
    39    10    35   1
    40    11    36   1
    41    14    37   1
    42    15    38   1
    43    16    39   1
    44    17    40   1
    45    17    41   1
    46    18    42   1
    47    18    43   1
    48    19    44   1
    49    19    45   1
    50    20    46   1
    51    22    47   1
    52    23    48   1
    53    25    49   1
    54    26    50   1
    55    28    51   1
    56    28    52   1
    57    29    53   1
    58    29    54   1
    59    30    55   1
@<TRIPOS>SUBSTRUCTURE
     1  FSN      2

