@<TRIPOS>MOLECULE
1oyt_ligand_066
    55    59
SMALL
GAST_HUCK
****
This file was generated by PARSER (from files_GN.cpp)

@<TRIPOS>ATOM
      1 O21        13.0285   -7.1116   26.9594 O.2         1 FSN      -0.3850
      2 C20        13.9166   -6.4613   26.3791 C.2         1 FSN       0.2221
      3 N19        15.0362   -6.0025   26.9307 N.am        1 FSN      -0.1734
      4 C23        15.4435   -6.2699   28.2885 C.3         1 FSN       0.0905
      5 C24        16.5960   -7.1952   28.3063 C.ar        1 FSN      -0.0199
      6 C32        16.4047   -8.5837   28.0756 C.ar        1 FSN      -0.0597
      7 C31        17.5041   -9.4742   28.1374 C.ar        1 FSN      -0.0348
      8 C30        18.7983   -9.0000   28.3925 C.ar        1 FSN       0.1248
      9 F29        19.8049   -9.8017   28.4164 F           1 FSN      -0.1893
     10 C26        19.0034   -7.6103   28.5868 C.ar        1 FSN      -0.0348
     11 C25        17.9100   -6.7158   28.5546 C.ar        1 FSN      -0.0597
     12 C17        15.6944   -5.3051   26.0373 C.2         1 FSN       0.2202
     13 O18        16.7592   -4.7334   26.2542 O.2         1 FSN      -0.3852
     14 C16        15.0451   -5.2636   24.7428 C.3         1 FSN       0.1237
     15 C15        15.8241   -5.9958   23.6284 C.3         1 FSN       0.0043
     16 N11        15.2283   -7.3380   23.5100 N.4         1 FSN       0.2554
     17 C12        15.5496   -7.8316   22.1475 C.3         1 FSN      -0.0294
     18 C13        15.8704   -6.5906   21.2751 C.3         1 FSN      -0.0072
     19 C14        15.7313   -5.3861   22.2144 C.3         1 FSN      -0.0022
     20 C10        13.7901   -7.2258   23.9034 C.3         1 FSN       0.0362
     21 C7         13.0925   -8.5089   24.2620 C.ar        1 FSN       0.0072
     22 C8         13.5298   -9.7815   23.8240 C.ar        1 FSN      -0.0548
     23 C9         12.8289  -10.9538   24.1746 C.ar        1 FSN      -0.0632
     24 C4         11.6933  -10.9168   25.0036 C.ar        1 FSN       0.0188
     25 C5         11.2512   -9.6329   25.4292 C.ar        1 FSN      -0.0632
     26 C6         11.9271   -8.4304   25.0518 C.ar        1 FSN      -0.0548
     27 C3         10.9937  -12.0765   25.3648 C.cat       1 FSN       0.2318
     28 N1         11.2305  -13.1997   24.8297 N.pl3       1 FSN      -0.2729
     29 N2         10.0681  -12.0794   26.2433 N.pl3       1 FSN      -0.2729
     30 C22        13.7607   -6.1026   24.9755 C.3         1 FSN       0.1316
     31 H1         14.6485   -6.6960   28.9114 H           1 FSN       0.0733
     32 H2         15.7002   -5.3247   28.7661 H           1 FSN       0.0733
     33 H3         15.4740   -8.9759   27.8998 H           1 FSN       0.0548
     34 H4         17.3140  -10.4677   27.9963 H           1 FSN       0.0587
     35 H5         19.9381   -7.2402   28.7475 H           1 FSN       0.0587
     36 H6         18.0772   -5.7204   28.7025 H           1 FSN       0.0548
     37 H7         14.8030   -4.2111   24.5078 H           1 FSN       0.0632
     38 H8         16.8891   -6.0748   23.8987 H           1 FSN       0.0882
     39 H9         15.6653   -7.9528   24.2020 H           1 FSN       0.2057
     40 H10        14.7357   -8.4039   21.6827 H           1 FSN       0.0815
     41 H11        16.4221   -8.4808   22.1877 H           1 FSN       0.0815
     42 H12        15.1680   -6.5320   20.4256 H           1 FSN       0.0319
     43 H13        16.8956   -6.6642   20.8808 H           1 FSN       0.0319
     44 H14        16.5088   -4.6337   22.0323 H           1 FSN       0.0323
     45 H15        14.7547   -4.9308   22.0637 H           1 FSN       0.0323
     46 H16        13.2483   -6.8389   23.0254 H           1 FSN       0.1048
     47 H17        14.3625   -9.8925   23.2475 H           1 FSN       0.0559
     48 H18        13.2072  -11.8317   23.8278 H           1 FSN       0.0599
     49 H19        10.4337   -9.5218   26.0297 H           1 FSN       0.0599
     50 H20        11.5632   -7.5759   25.3770 H           1 FSN       0.0559
     51 H21        10.7327  -13.9513   25.0904 H           1 FSN       0.3180
     52 H22        11.8861  -13.2983   24.1699 H           1 FSN       0.3180
     53 H23         9.8266  -11.2966   26.6867 H           1 FSN       0.3180
     54 H24         9.6222  -12.8751   26.4391 H           1 FSN       0.3180
     55 H25        12.8658   -5.4751   24.8605 H           1 FSN       0.0654
@<TRIPOS>BOND
     1     1     2   2
     2     2     3  am
     3     2    30   1
     4     3     4   1
     5     3    12  am
     6     4     5   1
     7     5     6  ar
     8     5    11  ar
     9     6     7  ar
    10     7     8  ar
    11     8     9   1
    12     8    10  ar
    13    10    11  ar
    14    12    13   2
    15    12    14   1
    16    14    15   1
    17    14    30   1
    18    15    16   1
    19    15    19   1
    20    16    17   1
    21    16    20   1
    22    17    18   1
    23    18    19   1
    24    20    21   1
    25    20    30   1
    26    21    22  ar
    27    21    26  ar
    28    22    23  ar
    29    23    24  ar
    30    24    25  ar
    31    24    27   1
    32    25    26  ar
    33    27    28  ar
    34    27    29  ar
    35     4    31   1
    36     4    32   1
    37     6    33   1
    38     7    34   1
    39    10    35   1
    40    11    36   1
    41    14    37   1
    42    15    38   1
    43    16    39   1
    44    17    40   1
    45    17    41   1
    46    18    42   1
    47    18    43   1
    48    19    44   1
    49    19    45   1
    50    20    46   1
    51    22    47   1
    52    23    48   1
    53    25    49   1
    54    26    50   1
    55    28    51   1
    56    28    52   1
    57    29    53   1
    58    29    54   1
    59    30    55   1
@<TRIPOS>SUBSTRUCTURE
     1  FSN      2

