@<TRIPOS>MOLECULE
1oyt_ligand_049
    55    59
SMALL
GAST_HUCK
****
This file was generated by PARSER (from files_GN.cpp)

@<TRIPOS>ATOM
      1 O21        17.4262  -14.8692   19.5023 O.2         1 FSN      -0.3850
      2 C20        18.2099  -15.3619   20.2927 C.2         1 FSN       0.2221
      3 N19        18.9996  -16.3888   20.0294 N.am        1 FSN      -0.1734
      4 C23        19.0000  -17.1719   18.7989 C.3         1 FSN       0.0905
      5 C24        17.8350  -18.0772   18.5404 C.ar        1 FSN      -0.0199
      6 C32        16.6038  -17.6042   18.0192 C.ar        1 FSN      -0.0597
      7 C31        15.5185  -18.4743   17.8357 C.ar        1 FSN      -0.0348
      8 C30        15.6789  -19.8553   18.0427 C.ar        1 FSN       0.1248
      9 F29        14.6946  -20.6641   17.7988 F           1 FSN      -0.1893
     10 C26        16.9333  -20.3606   18.4203 C.ar        1 FSN      -0.0348
     11 C25        17.9848  -19.4753   18.6786 C.ar        1 FSN      -0.0597
     12 C17        19.8662  -16.5109   21.0291 C.2         1 FSN       0.2202
     13 O18        20.7751  -17.3295   21.0651 O.2         1 FSN      -0.3852
     14 C16        19.6428  -15.5900   22.1193 C.3         1 FSN       0.1237
     15 C15        20.7765  -14.5859   22.4845 C.3         1 FSN       0.0043
     16 N11        20.1846  -13.2270   22.4071 N.4         1 FSN       0.2554
     17 C12        19.9818  -12.7786   23.8055 C.3         1 FSN      -0.0294
     18 C13        21.2110  -13.3218   24.5383 C.3         1 FSN      -0.0072
     19 C14        21.3791  -14.7143   23.9136 C.3         1 FSN      -0.0022
     20 C10        18.9671  -13.2523   21.5533 C.3         1 FSN       0.0362
     21 C7         19.1874  -12.6353   20.2034 C.ar        1 FSN       0.0072
     22 C8         20.2970  -12.9665   19.3923 C.ar        1 FSN      -0.0548
     23 C9         20.4319  -12.4326   18.1005 C.ar        1 FSN      -0.0632
     24 C4         19.4698  -11.5338   17.5726 C.ar        1 FSN       0.0188
     25 C5         18.3264  -11.2625   18.3627 C.ar        1 FSN      -0.0632
     26 C6         18.1886  -11.8031   19.6487 C.ar        1 FSN      -0.0548
     27 C3         19.6744  -10.8598   16.3659 C.cat       1 FSN       0.2318
     28 N1         20.8333  -10.8295   15.8230 N.pl3       1 FSN      -0.2729
     29 N2         18.7308  -10.2220   15.7846 N.pl3       1 FSN      -0.2729
     30 C22        18.4934  -14.7359   21.5661 C.3         1 FSN       0.1316
     31 H1         19.9058  -17.7951   18.8088 H           1 FSN       0.0733
     32 H2         19.1080  -16.5005   17.9338 H           1 FSN       0.0733
     33 H3         16.5172  -16.6450   17.7224 H           1 FSN       0.0548
     34 H4         14.6212  -18.1117   17.5147 H           1 FSN       0.0587
     35 H5         17.0826  -21.3686   18.4746 H           1 FSN       0.0587
     36 H6         18.8866  -19.8740   18.9297 H           1 FSN       0.0548
     37 H7         19.3101  -16.1579   22.9972 H           1 FSN       0.0632
     38 H8         21.5886  -14.6562   21.7581 H           1 FSN       0.0882
     39 H9         20.8759  -12.6006   21.9872 H           1 FSN       0.2057
     40 H10        19.0747  -13.2101   24.2429 H           1 FSN       0.0815
     41 H11        19.9184  -11.6915   23.8679 H           1 FSN       0.0815
     42 H12        21.0520  -13.3568   25.6196 H           1 FSN       0.0319
     43 H13        22.0873  -12.7052   24.3218 H           1 FSN       0.0319
     44 H14        22.4333  -14.9987   23.8876 H           1 FSN       0.0323
     45 H15        20.8406  -15.4414   24.5237 H           1 FSN       0.0323
     46 H16        18.1849  -12.6611   22.0479 H           1 FSN       0.1048
     47 H17        21.0167  -13.6088   19.7224 H           1 FSN       0.0559
     48 H18        21.2527  -12.7091   17.5549 H           1 FSN       0.0599
     49 H19        17.5863  -10.6378   18.0337 H           1 FSN       0.0599
     50 H20        17.3287  -11.6012   20.1624 H           1 FSN       0.0559
     51 H21        20.9897  -10.3373   15.0473 H           1 FSN       0.3180
     52 H22        21.5405  -11.2979   16.2123 H           1 FSN       0.3180
     53 H23        17.8673  -10.2459   16.1392 H           1 FSN       0.3180
     54 H24        18.8810   -9.7405   14.9997 H           1 FSN       0.3180
     55 H25        17.6273  -14.8397   22.2220 H           1 FSN       0.0654
@<TRIPOS>BOND
     1     1     2   2
     2     2     3  am
     3     2    30   1
     4     3     4   1
     5     3    12  am
     6     4     5   1
     7     5     6  ar
     8     5    11  ar
     9     6     7  ar
    10     7     8  ar
    11     8     9   1
    12     8    10  ar
    13    10    11  ar
    14    12    13   2
    15    12    14   1
    16    14    15   1
    17    14    30   1
    18    15    16   1
    19    15    19   1
    20    16    17   1
    21    16    20   1
    22    17    18   1
    23    18    19   1
    24    20    21   1
    25    20    30   1
    26    21    22  ar
    27    21    26  ar
    28    22    23  ar
    29    23    24  ar
    30    24    25  ar
    31    24    27   1
    32    25    26  ar
    33    27    28  ar
    34    27    29  ar
    35     4    31   1
    36     4    32   1
    37     6    33   1
    38     7    34   1
    39    10    35   1
    40    11    36   1
    41    14    37   1
    42    15    38   1
    43    16    39   1
    44    17    40   1
    45    17    41   1
    46    18    42   1
    47    18    43   1
    48    19    44   1
    49    19    45   1
    50    20    46   1
    51    22    47   1
    52    23    48   1
    53    25    49   1
    54    26    50   1
    55    28    51   1
    56    28    52   1
    57    29    53   1
    58    29    54   1
    59    30    55   1
@<TRIPOS>SUBSTRUCTURE
     1  FSN      2

