@<TRIPOS>MOLECULE
1oyt_ligand_006
    55    59
SMALL
GAST_HUCK
****
This file was generated by PARSER (from files_GN.cpp)

@<TRIPOS>ATOM
      1 O21        22.6376  -15.4454   27.8449 O.2         1 FSN      -0.3850
      2 C20        23.1889  -15.7130   26.7806 C.2         1 FSN       0.2221
      3 N19        23.2263  -14.8908   25.7399 N.am        1 FSN      -0.1734
      4 C23        22.7170  -13.5364   25.7171 C.3         1 FSN       0.0905
      5 C24        21.7513  -13.2832   24.6080 C.ar        1 FSN      -0.0199
      6 C32        22.2228  -13.0353   23.2984 C.ar        1 FSN      -0.0597
      7 C31        21.3258  -12.8433   22.2320 C.ar        1 FSN      -0.0348
      8 C30        19.9368  -12.8307   22.4687 C.ar        1 FSN       0.1248
      9 F29        19.1086  -12.5986   21.4873 F           1 FSN      -0.1893
     10 C26        19.4517  -13.0451   23.7753 C.ar        1 FSN      -0.0348
     11 C25        20.3512  -13.2862   24.8318 C.ar        1 FSN      -0.0597
     12 C17        23.8670  -15.5017   24.7498 C.2         1 FSN       0.2202
     13 O18        24.1367  -15.0046   23.6656 O.2         1 FSN      -0.3852
     14 C16        24.2584  -16.8498   25.0646 C.3         1 FSN       0.1237
     15 C15        25.7932  -17.0403   25.0526 C.3         1 FSN       0.0043
     16 N11        26.2197  -16.9186   26.4567 N.4         1 FSN       0.2554
     17 C12        27.5165  -17.6465   26.5585 C.3         1 FSN      -0.0294
     18 C13        27.6564  -18.5300   25.2944 C.3         1 FSN      -0.0072
     19 C14        26.3020  -18.4146   24.5818 C.3         1 FSN      -0.0022
     20 C10        25.0941  -17.3900   27.3221 C.3         1 FSN       0.0362
     21 C7         25.1611  -16.9535   28.7563 C.ar        1 FSN       0.0072
     22 C8         26.2703  -16.2587   29.2949 C.ar        1 FSN      -0.0548
     23 C9         26.3120  -15.9016   30.6500 C.ar        1 FSN      -0.0632
     24 C4         25.2315  -16.1723   31.5285 C.ar        1 FSN       0.0188
     25 C5         24.1209  -16.8672   30.9771 C.ar        1 FSN      -0.0632
     26 C6         24.0985  -17.2720   29.6314 C.ar        1 FSN      -0.0548
     27 C3         25.2686  -15.7635   32.8721 C.cat       1 FSN       0.2318
     28 N1         26.2552  -15.1365   33.3864 N.pl3       1 FSN      -0.2729
     29 N2         24.3059  -15.9713   33.6891 N.pl3       1 FSN      -0.2729
     30 C22        23.8028  -16.9992   26.5291 C.3         1 FSN       0.1316
     31 H1         23.5575  -12.8439   25.6329 H           1 FSN       0.0733
     32 H2         22.2293  -13.2779   26.6628 H           1 FSN       0.0733
     33 H3         23.2255  -12.9892   23.1084 H           1 FSN       0.0548
     34 H4         21.6870  -12.6956   21.2823 H           1 FSN       0.0587
     35 H5         18.4451  -13.0254   23.9572 H           1 FSN       0.0587
     36 H6         19.9760  -13.4554   25.7736 H           1 FSN       0.0548
     37 H7         23.7444  -17.5496   24.3992 H           1 FSN       0.0632
     38 H8         26.2956  -16.2626   24.4604 H           1 FSN       0.0882
     39 H9         26.3517  -15.9207   26.6457 H           1 FSN       0.2057
     40 H10        27.5732  -18.2627   27.4605 H           1 FSN       0.0815
     41 H11        28.3300  -16.9170   26.5960 H           1 FSN       0.0815
     42 H12        27.8799  -19.5688   25.5511 H           1 FSN       0.0319
     43 H13        28.4539  -18.1415   24.6525 H           1 FSN       0.0319
     44 H14        26.4073  -18.4530   23.4955 H           1 FSN       0.0323
     45 H15        25.6338  -19.2117   24.9114 H           1 FSN       0.0323
     46 H16        25.1197  -18.4867   27.3401 H           1 FSN       0.1048
     47 H17        27.0741  -16.0154   28.7146 H           1 FSN       0.0559
     48 H18        27.1560  -15.4409   30.9848 H           1 FSN       0.0599
     49 H19        23.3047  -17.0877   31.5488 H           1 FSN       0.0599
     50 H20        23.2881  -17.7891   29.2837 H           1 FSN       0.0559
     51 H21        26.2286  -14.8827   34.2866 H           1 FSN       0.3180
     52 H22        26.9984  -14.9067   32.8702 H           1 FSN       0.3180
     53 H23        23.5264  -16.4028   33.4143 H           1 FSN       0.3180
     54 H24        24.3755  -15.6710   34.5715 H           1 FSN       0.3180
     55 H25        23.0406  -17.7830   26.6209 H           1 FSN       0.0654
@<TRIPOS>BOND
     1     1     2   2
     2     2     3  am
     3     2    30   1
     4     3     4   1
     5     3    12  am
     6     4     5   1
     7     5     6  ar
     8     5    11  ar
     9     6     7  ar
    10     7     8  ar
    11     8     9   1
    12     8    10  ar
    13    10    11  ar
    14    12    13   2
    15    12    14   1
    16    14    15   1
    17    14    30   1
    18    15    16   1
    19    15    19   1
    20    16    17   1
    21    16    20   1
    22    17    18   1
    23    18    19   1
    24    20    21   1
    25    20    30   1
    26    21    22  ar
    27    21    26  ar
    28    22    23  ar
    29    23    24  ar
    30    24    25  ar
    31    24    27   1
    32    25    26  ar
    33    27    28  ar
    34    27    29  ar
    35     4    31   1
    36     4    32   1
    37     6    33   1
    38     7    34   1
    39    10    35   1
    40    11    36   1
    41    14    37   1
    42    15    38   1
    43    16    39   1
    44    17    40   1
    45    17    41   1
    46    18    42   1
    47    18    43   1
    48    19    44   1
    49    19    45   1
    50    20    46   1
    51    22    47   1
    52    23    48   1
    53    25    49   1
    54    26    50   1
    55    28    51   1
    56    28    52   1
    57    29    53   1
    58    29    54   1
    59    30    55   1
@<TRIPOS>SUBSTRUCTURE
     1  FSN      2

