@<TRIPOS>MOLECULE
1oyt_ligand_045
    55    59
SMALL
GAST_HUCK
****
This file was generated by PARSER (from files_GN.cpp)

@<TRIPOS>ATOM
      1 O21        18.8864  -16.7511    8.1717 O.2         1 FSN      -0.3850
      2 C20        18.9970  -16.4374    9.3489 C.2         1 FSN       0.2221
      3 N19        18.3959  -17.0255   10.3689 N.am        1 FSN      -0.1734
      4 C23        17.5346  -18.1866   10.2730 C.3         1 FSN       0.0905
      5 C24        16.1164  -17.8560   10.5796 C.ar        1 FSN      -0.0199
      6 C32        15.6429  -17.8487   11.9114 C.ar        1 FSN      -0.0597
      7 C31        14.3053  -17.5210   12.2046 C.ar        1 FSN      -0.0348
      8 C30        13.4139  -17.2182   11.1614 C.ar        1 FSN       0.1248
      9 F29        12.1700  -16.9387   11.4376 F           1 FSN      -0.1893
     10 C26        13.8661  -17.2309    9.8275 C.ar        1 FSN      -0.0348
     11 C25        15.2073  -17.5403    9.5381 C.ar        1 FSN      -0.0597
     12 C17        18.7491  -16.4136   11.4910 C.2         1 FSN       0.2202
     13 O18        18.3976  -16.7043   12.6265 O.2         1 FSN      -0.3852
     14 C16        19.6209  -15.2920   11.2686 C.3         1 FSN       0.1237
     15 C15        21.0102  -15.3786   11.9660 C.3         1 FSN       0.0043
     16 N11        22.0339  -15.2661   10.9052 N.4         1 FSN       0.2554
     17 C12        22.6818  -13.9433   11.0463 C.3         1 FSN      -0.0294
     18 C13        22.6818  -13.7061   12.5590 C.3         1 FSN      -0.0072
     19 C14        21.3192  -14.2594   12.9941 C.3         1 FSN      -0.0022
     20 C10        21.4197  -15.5832    9.5832 C.3         1 FSN       0.0362
     21 C7         21.8819  -16.9294    9.0965 C.ar        1 FSN       0.0072
     22 C8         21.6193  -18.1152    9.8204 C.ar        1 FSN      -0.0548
     23 C9         22.0147  -19.3737    9.3299 C.ar        1 FSN      -0.0632
     24 C4         22.7024  -19.5070    8.0964 C.ar        1 FSN       0.0188
     25 C5         22.9827  -18.3104    7.3866 C.ar        1 FSN      -0.0632
     26 C6         22.5802  -17.0535    7.8722 C.ar        1 FSN      -0.0548
     27 C3         23.0877  -20.7646    7.6009 C.cat       1 FSN       0.2318
     28 N1         23.5137  -20.9329    6.4039 N.pl3       1 FSN      -0.2729
     29 N2         23.0425  -21.8277    8.3008 N.pl3       1 FSN      -0.2729
     30 C22        19.8822  -15.3722    9.7585 C.3         1 FSN       0.1316
     31 H1         17.9037  -18.9595   10.9535 H           1 FSN       0.0733
     32 H2         17.5755  -18.6408    9.2757 H           1 FSN       0.0733
     33 H3         16.2642  -18.0898   12.6851 H           1 FSN       0.0548
     34 H4         13.9934  -17.5121   13.1786 H           1 FSN       0.0587
     35 H5         13.2166  -17.0138    9.0676 H           1 FSN       0.0587
     36 H6         15.5150  -17.5436    8.5597 H           1 FSN       0.0548
     37 H7         19.0813  -14.3703   11.5213 H           1 FSN       0.0632
     38 H8         21.1459  -16.3472   12.4634 H           1 FSN       0.0882
     39 H9         22.7647  -15.9488   11.1166 H           1 FSN       0.2057
     40 H10        22.1142  -13.1530   10.5451 H           1 FSN       0.0815
     41 H11        23.6995  -13.9719   10.6533 H           1 FSN       0.0815
     42 H12        22.7737  -12.6509   12.8092 H           1 FSN       0.0319
     43 H13        23.5003  -14.2579   13.0316 H           1 FSN       0.0319
     44 H14        21.3766  -14.6432   14.0143 H           1 FSN       0.0323
     45 H15        20.5728  -13.4602   12.9688 H           1 FSN       0.0323
     46 H16        21.7416  -14.8350    8.8489 H           1 FSN       0.1048
     47 H17        21.1158  -18.0770   10.7077 H           1 FSN       0.0559
     48 H18        21.7678  -20.1947    9.8862 H           1 FSN       0.0599
     49 H19        23.4913  -18.3310    6.5001 H           1 FSN       0.0599
     50 H20        22.8035  -16.2218    7.3177 H           1 FSN       0.0559
     51 H21        23.7582  -21.7860    6.1123 H           1 FSN       0.3180
     52 H22        23.5731  -20.2125    5.8142 H           1 FSN       0.3180
     53 H23        22.7507  -21.8044    9.1874 H           1 FSN       0.3180
     54 H24        23.3065  -22.6456    7.9315 H           1 FSN       0.3180
     55 H25        19.5619  -14.4381    9.2846 H           1 FSN       0.0654
@<TRIPOS>BOND
     1     1     2   2
     2     2     3  am
     3     2    30   1
     4     3     4   1
     5     3    12  am
     6     4     5   1
     7     5     6  ar
     8     5    11  ar
     9     6     7  ar
    10     7     8  ar
    11     8     9   1
    12     8    10  ar
    13    10    11  ar
    14    12    13   2
    15    12    14   1
    16    14    15   1
    17    14    30   1
    18    15    16   1
    19    15    19   1
    20    16    17   1
    21    16    20   1
    22    17    18   1
    23    18    19   1
    24    20    21   1
    25    20    30   1
    26    21    22  ar
    27    21    26  ar
    28    22    23  ar
    29    23    24  ar
    30    24    25  ar
    31    24    27   1
    32    25    26  ar
    33    27    28  ar
    34    27    29  ar
    35     4    31   1
    36     4    32   1
    37     6    33   1
    38     7    34   1
    39    10    35   1
    40    11    36   1
    41    14    37   1
    42    15    38   1
    43    16    39   1
    44    17    40   1
    45    17    41   1
    46    18    42   1
    47    18    43   1
    48    19    44   1
    49    19    45   1
    50    20    46   1
    51    22    47   1
    52    23    48   1
    53    25    49   1
    54    26    50   1
    55    28    51   1
    56    28    52   1
    57    29    53   1
    58    29    54   1
    59    30    55   1
@<TRIPOS>SUBSTRUCTURE
     1  FSN      2

