@<TRIPOS>MOLECULE
1oyt_ligand_038
    55    59
SMALL
GAST_HUCK
****
This file was generated by PARSER (from files_GN.cpp)

@<TRIPOS>ATOM
      1 O21        24.4721  -17.5522   22.1286 O.2         1 FSN      -0.3850
      2 C20        23.9788  -17.9650   23.1707 C.2         1 FSN       0.2221
      3 N19        24.2802  -17.5482   24.3887 N.am        1 FSN      -0.1734
      4 C23        25.1884  -16.4644   24.6953 C.3         1 FSN       0.0905
      5 C24        26.4666  -16.5491   23.9372 C.ar        1 FSN      -0.0199
      6 C32        27.3507  -17.6343   24.1411 C.ar        1 FSN      -0.0597
      7 C31        28.5445  -17.7331   23.3986 C.ar        1 FSN      -0.0348
      8 C30        28.8517  -16.7650   22.4235 C.ar        1 FSN       0.1248
      9 F29        29.9525  -16.8596   21.7316 F           1 FSN      -0.1893
     10 C26        27.9688  -15.6906   22.1989 C.ar        1 FSN      -0.0348
     11 C25        26.7831  -15.5874   22.9477 C.ar        1 FSN      -0.0597
     12 C17        23.5930  -18.2503   25.2735 C.2         1 FSN       0.2202
     13 O18        23.6395  -18.1068   26.4884 O.2         1 FSN      -0.3852
     14 C16        22.7576  -19.2565   24.6646 C.3         1 FSN       0.1237
     15 C15        21.2267  -19.1095   24.8998 C.3         1 FSN       0.0043
     16 N11        20.5993  -19.1133   23.5569 N.4         1 FSN       0.2554
     17 C12        19.9960  -20.4565   23.3852 C.3         1 FSN      -0.0294
     18 C13        19.4761  -20.8184   24.7809 C.3         1 FSN      -0.0072
     19 C14        20.5394  -20.2338   25.7232 C.3         1 FSN      -0.0022
     20 C10        21.6010  -18.6927   22.5316 C.3         1 FSN       0.0362
     21 C7         21.3850  -17.2763   22.0626 C.ar        1 FSN       0.0072
     22 C8         21.3625  -16.1827   22.9587 C.ar        1 FSN      -0.0548
     23 C9         21.2069  -14.8619   22.4984 C.ar        1 FSN      -0.0632
     24 C4         21.0916  -14.5653   21.1151 C.ar        1 FSN       0.0188
     25 C5         21.1373  -15.6655   20.2224 C.ar        1 FSN      -0.0632
     26 C6         21.2728  -16.9873   20.6830 C.ar        1 FSN      -0.0548
     27 C3         20.9612  -13.2475   20.6486 C.cat       1 FSN       0.2318
     28 N1         20.6549  -12.2716   21.4146 N.pl3       1 FSN      -0.2729
     29 N2         21.1405  -12.9237   19.4251 N.pl3       1 FSN      -0.2729
     30 C22        22.9915  -19.0114   23.1633 C.3         1 FSN       0.1316
     31 H1         25.4391  -16.4347   25.7607 H           1 FSN       0.0733
     32 H2         24.6637  -15.5296   24.4715 H           1 FSN       0.0733
     33 H3         27.1293  -18.3610   24.8253 H           1 FSN       0.0548
     34 H4         29.1791  -18.5186   23.5604 H           1 FSN       0.0587
     35 H5         28.1783  -14.9916   21.4839 H           1 FSN       0.0587
     36 H6         26.1459  -14.8109   22.7614 H           1 FSN       0.0548
     37 H7         23.1268  -20.2458   24.9491 H           1 FSN       0.0632
     38 H8         21.0011  -18.1536   25.3813 H           1 FSN       0.0882
     39 H9         19.8315  -18.4387   23.5638 H           1 FSN       0.2057
     40 H10        20.7374  -21.1987   23.0666 H           1 FSN       0.0815
     41 H11        19.1838  -20.4256   22.6553 H           1 FSN       0.0815
     42 H12        19.3680  -21.8988   24.9051 H           1 FSN       0.0319
     43 H13        18.5091  -20.3363   24.9532 H           1 FSN       0.0319
     44 H14        20.0708  -19.8356   26.6277 H           1 FSN       0.0323
     45 H15        21.2432  -21.0149   26.0204 H           1 FSN       0.0323
     46 H16        21.4985  -19.3448   21.6553 H           1 FSN       0.1048
     47 H17        21.4770  -16.3309   23.9598 H           1 FSN       0.0559
     48 H18        21.2037  -14.1126   23.1959 H           1 FSN       0.0599
     49 H19        21.0684  -15.5181   19.2144 H           1 FSN       0.0599
     50 H20        21.3124  -17.7401   19.9918 H           1 FSN       0.0559
     51 H21        20.5765  -11.4082   21.0629 H           1 FSN       0.3180
     52 H22        20.4980  -12.4113   22.3249 H           1 FSN       0.3180
     53 H23        21.3694  -13.5678   18.7896 H           1 FSN       0.3180
     54 H24        21.0493  -12.0309   19.1570 H           1 FSN       0.3180
     55 H25        23.4216  -19.9106   22.7035 H           1 FSN       0.0654
@<TRIPOS>BOND
     1     1     2   2
     2     2     3  am
     3     2    30   1
     4     3     4   1
     5     3    12  am
     6     4     5   1
     7     5     6  ar
     8     5    11  ar
     9     6     7  ar
    10     7     8  ar
    11     8     9   1
    12     8    10  ar
    13    10    11  ar
    14    12    13   2
    15    12    14   1
    16    14    15   1
    17    14    30   1
    18    15    16   1
    19    15    19   1
    20    16    17   1
    21    16    20   1
    22    17    18   1
    23    18    19   1
    24    20    21   1
    25    20    30   1
    26    21    22  ar
    27    21    26  ar
    28    22    23  ar
    29    23    24  ar
    30    24    25  ar
    31    24    27   1
    32    25    26  ar
    33    27    28  ar
    34    27    29  ar
    35     4    31   1
    36     4    32   1
    37     6    33   1
    38     7    34   1
    39    10    35   1
    40    11    36   1
    41    14    37   1
    42    15    38   1
    43    16    39   1
    44    17    40   1
    45    17    41   1
    46    18    42   1
    47    18    43   1
    48    19    44   1
    49    19    45   1
    50    20    46   1
    51    22    47   1
    52    23    48   1
    53    25    49   1
    54    26    50   1
    55    28    51   1
    56    28    52   1
    57    29    53   1
    58    29    54   1
    59    30    55   1
@<TRIPOS>SUBSTRUCTURE
     1  FSN      2

