@<TRIPOS>MOLECULE
1oyt_ligand_002
    55    59
SMALL
GAST_HUCK
****
This file was generated by PARSER (from files_GN.cpp)

@<TRIPOS>ATOM
      1 O21        17.3848  -14.6569   13.9161 O.2         1 FSN      -0.3850
      2 C20        16.8051  -15.2954   14.7841 C.2         1 FSN       0.2221
      3 N19        16.2913  -14.7642   15.8823 N.am        1 FSN      -0.1734
      4 C23        16.3162  -13.3347   16.1355 C.3         1 FSN       0.0905
      5 C24        15.6328  -12.8181   17.3573 C.ar        1 FSN      -0.0199
      6 C32        14.4744  -12.0089   17.2555 C.ar        1 FSN      -0.0597
      7 C31        13.7975  -11.5741   18.4085 C.ar        1 FSN      -0.0348
      8 C30        14.2714  -11.9389   19.6818 C.ar        1 FSN       0.1248
      9 F29        13.6277  -11.5585   20.7526 F           1 FSN      -0.1893
     10 C26        15.4372  -12.7182   19.8009 C.ar        1 FSN      -0.0348
     11 C25        16.1348  -13.1218   18.6476 C.ar        1 FSN      -0.0597
     12 C17        15.7980  -15.7506   16.6206 C.2         1 FSN       0.2202
     13 O18        15.2301  -15.6564   17.7009 O.2         1 FSN      -0.3852
     14 C16        16.0187  -17.0551   16.0611 C.3         1 FSN       0.1237
     15 C15        14.7198  -17.8164   15.6866 C.3         1 FSN       0.0043
     16 N11        14.5273  -17.6130   14.2432 N.4         1 FSN       0.2554
     17 C12        13.7086  -18.7555   13.7673 C.3         1 FSN      -0.0294
     18 C13        13.9703  -19.9371   14.7237 C.3         1 FSN      -0.0072
     19 C14        14.7754  -19.3460   15.8957 C.3         1 FSN      -0.0022
     20 C10        15.8729  -17.4254   13.6224 C.3         1 FSN       0.0362
     21 C7         15.8929  -16.7554   12.2792 C.ar        1 FSN       0.0072
     22 C8         14.7268  -16.2912   11.6230 C.ar        1 FSN      -0.0548
     23 C9         14.8035  -15.6666   10.3639 C.ar        1 FSN      -0.0632
     24 C4         16.0477  -15.4568    9.7190 C.ar        1 FSN       0.0188
     25 C5         17.2080  -15.9368   10.3754 C.ar        1 FSN      -0.0632
     26 C6         17.1304  -16.5877   11.6185 C.ar        1 FSN      -0.0548
     27 C3         16.1280  -14.7749    8.4974 C.cat       1 FSN       0.2318
     28 N1         15.1655  -14.7484    7.6610 N.pl3       1 FSN      -0.2729
     29 N2         17.1735  -14.1245    8.1616 N.pl3       1 FSN      -0.2729
     30 C22        16.7286  -16.7377   14.7378 C.3         1 FSN       0.1316
     31 H1         15.8892  -12.8430   15.2586 H           1 FSN       0.0733
     32 H2         17.3674  -13.0137   16.1905 H           1 FSN       0.0733
     33 H3         14.1084  -11.7397   16.3379 H           1 FSN       0.0548
     34 H4         12.9571  -11.0015   18.3159 H           1 FSN       0.0587
     35 H5         15.7815  -12.9937   20.7239 H           1 FSN       0.0587
     36 H6         16.9533  -13.7239   18.7503 H           1 FSN       0.0548
     37 H7         16.6578  -17.6342   16.7410 H           1 FSN       0.0632
     38 H8         13.8452  -17.4165   16.2212 H           1 FSN       0.0882
     39 H9         13.9974  -16.7491   14.1214 H           1 FSN       0.2057
     40 H10        13.9358  -19.0315   12.7309 H           1 FSN       0.0815
     41 H11        12.6519  -18.4710   13.8113 H           1 FSN       0.0815
     42 H12        14.5465  -20.7217   14.2224 H           1 FSN       0.0319
     43 H13        13.0273  -20.3670   15.0743 H           1 FSN       0.0319
     44 H14        14.3426  -19.6270   16.8624 H           1 FSN       0.0323
     45 H15        15.8026  -19.7133   15.8538 H           1 FSN       0.0323
     46 H16        16.3073  -18.4208   13.4699 H           1 FSN       0.1048
     47 H17        13.8047  -16.4009   12.0481 H           1 FSN       0.0559
     48 H18        13.9341  -15.3330    9.9410 H           1 FSN       0.0599
     49 H19        18.1314  -15.8282    9.9497 H           1 FSN       0.0599
     50 H20        17.9941  -16.9155   12.0566 H           1 FSN       0.0559
     51 H21        15.2558  -14.2763    6.8567 H           1 FSN       0.3180
     52 H22        14.3702  -15.2083    7.8374 H           1 FSN       0.3180
     53 H23        17.9158  -14.0840    8.7308 H           1 FSN       0.3180
     54 H24        17.1820  -13.6458    7.3592 H           1 FSN       0.3180
     55 H25        17.7462  -17.1443   14.7426 H           1 FSN       0.0654
@<TRIPOS>BOND
     1     1     2   2
     2     2     3  am
     3     2    30   1
     4     3     4   1
     5     3    12  am
     6     4     5   1
     7     5     6  ar
     8     5    11  ar
     9     6     7  ar
    10     7     8  ar
    11     8     9   1
    12     8    10  ar
    13    10    11  ar
    14    12    13   2
    15    12    14   1
    16    14    15   1
    17    14    30   1
    18    15    16   1
    19    15    19   1
    20    16    17   1
    21    16    20   1
    22    17    18   1
    23    18    19   1
    24    20    21   1
    25    20    30   1
    26    21    22  ar
    27    21    26  ar
    28    22    23  ar
    29    23    24  ar
    30    24    25  ar
    31    24    27   1
    32    25    26  ar
    33    27    28  ar
    34    27    29  ar
    35     4    31   1
    36     4    32   1
    37     6    33   1
    38     7    34   1
    39    10    35   1
    40    11    36   1
    41    14    37   1
    42    15    38   1
    43    16    39   1
    44    17    40   1
    45    17    41   1
    46    18    42   1
    47    18    43   1
    48    19    44   1
    49    19    45   1
    50    20    46   1
    51    22    47   1
    52    23    48   1
    53    25    49   1
    54    26    50   1
    55    28    51   1
    56    28    52   1
    57    29    53   1
    58    29    54   1
    59    30    55   1
@<TRIPOS>SUBSTRUCTURE
     1  FSN      2

