@<TRIPOS>MOLECULE
1oyt_ligand_063
    55    59
SMALL
GAST_HUCK
****
This file was generated by PARSER (from files_GN.cpp)

@<TRIPOS>ATOM
      1 O21        13.8946  -11.8133   24.7929 O.2         1 FSN      -0.3850
      2 C20        13.2084  -10.8081   24.7398 C.2         1 FSN       0.2221
      3 N19        13.1154   -9.8886   25.6726 N.am        1 FSN      -0.1734
      4 C23        13.9025   -9.8395   26.8963 C.3         1 FSN       0.0905
      5 C24        13.8261  -11.0774   27.7182 C.ar        1 FSN      -0.0199
      6 C32        12.8211  -11.2458   28.6857 C.ar        1 FSN      -0.0597
      7 C31        12.7396  -12.4319   29.4297 C.ar        1 FSN      -0.0348
      8 C30        13.6443  -13.4807   29.2010 C.ar        1 FSN       0.1248
      9 F29        13.5602  -14.5810   29.8851 F           1 FSN      -0.1893
     10 C26        14.6419  -13.3338   28.2366 C.ar        1 FSN      -0.0348
     11 C25        14.7459  -12.1261   27.5244 C.ar        1 FSN      -0.0597
     12 C17        12.2395   -8.9900   25.2687 C.2         1 FSN       0.2202
     13 O18        11.9219   -7.9823   25.8812 O.2         1 FSN      -0.3852
     14 C16        11.6829   -9.2953   23.9799 C.3         1 FSN       0.1237
     15 C15        12.1405   -8.3332   22.8571 C.3         1 FSN       0.0043
     16 N11        13.2162   -9.0179   22.1183 N.4         1 FSN       0.2554
     17 C12        13.2453   -8.4384   20.7480 C.3         1 FSN      -0.0294
     18 C13        11.9057   -7.7092   20.5192 C.3         1 FSN      -0.0072
     19 C14        11.0848   -8.0024   21.7840 C.3         1 FSN      -0.0022
     20 C10        12.9582  -10.4837   22.2268 C.3         1 FSN       0.0362
     21 C7         14.1180  -11.3928   21.9363 C.ar        1 FSN       0.0072
     22 C8         15.3536  -10.9282   21.4339 C.ar        1 FSN      -0.0548
     23 C9         16.4142  -11.8155   21.1855 C.ar        1 FSN      -0.0632
     24 C4         16.2975  -13.2062   21.4418 C.ar        1 FSN       0.0188
     25 C5         15.0562  -13.6637   21.9496 C.ar        1 FSN      -0.0632
     26 C6         13.9805  -12.7814   22.1565 C.ar        1 FSN      -0.0548
     27 C3         17.3644  -14.0913   21.2025 C.cat       1 FSN       0.2318
     28 N1         18.5108  -13.7043   20.7927 N.pl3       1 FSN      -0.2729
     29 N2         17.2718  -15.3561   21.3765 N.pl3       1 FSN      -0.2729
     30 C22        12.3254  -10.6419   23.6377 C.3         1 FSN       0.1316
     31 H1         13.5840   -9.0000   27.5214 H           1 FSN       0.0733
     32 H2         14.9590   -9.6161   26.6558 H           1 FSN       0.0733
     33 H3         12.1731  -10.4839   28.8608 H           1 FSN       0.0548
     34 H4         12.0260  -12.5411   30.1451 H           1 FSN       0.0587
     35 H5         15.2956  -14.0835   28.0309 H           1 FSN       0.0587
     36 H6         15.4685  -12.0527   26.8077 H           1 FSN       0.0548
     37 H7         10.5969   -9.3795   24.0498 H           1 FSN       0.0632
     38 H8         12.5294   -7.3947   23.2702 H           1 FSN       0.0882
     39 H9         14.1032   -8.8139   22.5917 H           1 FSN       0.2057
     40 H10        13.4056   -9.1942   19.9749 H           1 FSN       0.0815
     41 H11        14.0770   -7.7303   20.6997 H           1 FSN       0.0815
     42 H12        11.3989   -8.0663   19.6224 H           1 FSN       0.0319
     43 H13        12.0692   -6.6326   20.4133 H           1 FSN       0.0319
     44 H14        10.4815   -7.1381   22.0795 H           1 FSN       0.0323
     45 H15        10.4395   -8.8627   21.6018 H           1 FSN       0.0323
     46 H16        12.1748  -10.7512   21.5059 H           1 FSN       0.1048
     47 H17        15.5029   -9.9405   21.2316 H           1 FSN       0.0559
     48 H18        17.2788  -11.4170   20.8150 H           1 FSN       0.0599
     49 H19        14.8995  -14.6470   22.1686 H           1 FSN       0.0599
     50 H20        13.1163  -13.1566   22.5580 H           1 FSN       0.0559
     51 H21        19.1926  -14.3289   20.6465 H           1 FSN       0.3180
     52 H22        18.6822  -12.7994   20.6365 H           1 FSN       0.3180
     53 H23        16.4742  -15.7402   21.6721 H           1 FSN       0.3180
     54 H24        18.0087  -15.9062   21.2045 H           1 FSN       0.3180
     55 H25        11.5953  -11.4581   23.6520 H           1 FSN       0.0654
@<TRIPOS>BOND
     1     1     2   2
     2     2     3  am
     3     2    30   1
     4     3     4   1
     5     3    12  am
     6     4     5   1
     7     5     6  ar
     8     5    11  ar
     9     6     7  ar
    10     7     8  ar
    11     8     9   1
    12     8    10  ar
    13    10    11  ar
    14    12    13   2
    15    12    14   1
    16    14    15   1
    17    14    30   1
    18    15    16   1
    19    15    19   1
    20    16    17   1
    21    16    20   1
    22    17    18   1
    23    18    19   1
    24    20    21   1
    25    20    30   1
    26    21    22  ar
    27    21    26  ar
    28    22    23  ar
    29    23    24  ar
    30    24    25  ar
    31    24    27   1
    32    25    26  ar
    33    27    28  ar
    34    27    29  ar
    35     4    31   1
    36     4    32   1
    37     6    33   1
    38     7    34   1
    39    10    35   1
    40    11    36   1
    41    14    37   1
    42    15    38   1
    43    16    39   1
    44    17    40   1
    45    17    41   1
    46    18    42   1
    47    18    43   1
    48    19    44   1
    49    19    45   1
    50    20    46   1
    51    22    47   1
    52    23    48   1
    53    25    49   1
    54    26    50   1
    55    28    51   1
    56    28    52   1
    57    29    53   1
    58    29    54   1
    59    30    55   1
@<TRIPOS>SUBSTRUCTURE
     1  FSN      2

