@<TRIPOS>MOLECULE
1oyt_ligand_051
    55    59
SMALL
GAST_HUCK
****
This file was generated by PARSER (from files_GN.cpp)

@<TRIPOS>ATOM
      1 O21        14.1638  -12.0193   23.3114 O.2         1 FSN      -0.3850
      2 C20        13.4791  -11.2104   22.7054 C.2         1 FSN       0.2221
      3 N19        12.8330  -11.4364   21.5711 N.am        1 FSN      -0.1734
      4 C23        12.7376  -12.6902   20.8465 C.3         1 FSN       0.0905
      5 C24        13.9127  -13.5974   20.9881 C.ar        1 FSN      -0.0199
      6 C32        15.1209  -13.2917   20.3205 C.ar        1 FSN      -0.0597
      7 C31        16.2806  -14.0541   20.5519 C.ar        1 FSN      -0.0348
      8 C30        16.2436  -15.1429   21.4424 C.ar        1 FSN       0.1248
      9 F29        17.3291  -15.8245   21.6903 F           1 FSN      -0.1893
     10 C26        15.0305  -15.4983   22.0616 C.ar        1 FSN      -0.0348
     11 C25        13.8724  -14.7302   21.8367 C.ar        1 FSN      -0.0597
     12 C17        12.1905  -10.3310   21.2328 C.2         1 FSN       0.2202
     13 O18        11.4937  -10.2005   20.2374 O.2         1 FSN      -0.3852
     14 C16        12.4549   -9.2225   22.1140 C.3         1 FSN       0.1237
     15 C15        11.2314   -8.5785   22.8294 C.3         1 FSN       0.0043
     16 N11        11.4703   -8.6526   24.2878 N.4         1 FSN       0.2554
     17 C12        11.7635   -7.2771   24.7564 C.3         1 FSN      -0.0294
     18 C13        10.8667   -6.4024   23.8755 C.3         1 FSN      -0.0072
     19 C14        10.9781   -7.0807   22.5065 C.3         1 FSN      -0.0022
     20 C10        12.5049   -9.6835   24.5539 C.3         1 FSN       0.0362
     21 C7         11.8543  -10.8909   25.1587 C.ar        1 FSN       0.0072
     22 C8         12.1629  -11.2948   26.4772 C.ar        1 FSN      -0.0548
     23 C9         11.5706  -12.4332   27.0459 C.ar        1 FSN      -0.0632
     24 C4         10.6355  -13.2182   26.3280 C.ar        1 FSN       0.0188
     25 C5         10.3121  -12.7935   25.0142 C.ar        1 FSN      -0.0632
     26 C6         10.9032  -11.6548   24.4456 C.ar        1 FSN      -0.0548
     27 C3         10.0774  -14.3740   26.8899 C.cat       1 FSN       0.2318
     28 N1          9.1335  -15.0284   26.3306 N.pl3       1 FSN      -0.2729
     29 N2         10.4765  -14.8733   27.9945 N.pl3       1 FSN      -0.2729
     30 C22        13.2909   -9.8766   23.2172 C.3         1 FSN       0.1316
     31 H1         12.6012  -12.4969   19.7759 H           1 FSN       0.0733
     32 H2         11.8279  -13.1924   21.1861 H           1 FSN       0.0733
     33 H3         15.1694  -12.4964   19.6795 H           1 FSN       0.0548
     34 H4         17.1533  -13.8059   20.0819 H           1 FSN       0.0587
     35 H5         14.9895  -16.3074   22.6874 H           1 FSN       0.0587
     36 H6         13.0076  -14.9891   22.3190 H           1 FSN       0.0548
     37 H7         13.0620   -8.4917   21.5703 H           1 FSN       0.0632
     38 H8         10.3249   -9.1529   22.6292 H           1 FSN       0.0882
     39 H9         10.5975   -8.9455   24.7475 H           1 FSN       0.2057
     40 H10        12.8127   -7.0044   24.5917 H           1 FSN       0.0815
     41 H11        11.5244   -7.1669   25.8169 H           1 FSN       0.0815
     42 H12        11.2092   -5.3657   23.8384 H           1 FSN       0.0319
     43 H13         9.8333   -6.4387   24.2323 H           1 FSN       0.0319
     44 H14        10.0775   -6.9195   21.9136 H           1 FSN       0.0323
     45 H15        11.8087   -6.6366   21.9626 H           1 FSN       0.0323
     46 H16        13.2196   -9.2835   25.2792 H           1 FSN       0.1048
     47 H17        12.8353  -10.7710   27.0403 H           1 FSN       0.0559
     48 H18        11.8455  -12.6854   27.9971 H           1 FSN       0.0599
     49 H19         9.6389  -13.3077   24.4429 H           1 FSN       0.0599
     50 H20        10.6382  -11.3997   23.4944 H           1 FSN       0.0559
     51 H21         8.8065  -15.8106   26.7261 H           1 FSN       0.3180
     52 H22         8.7701  -14.7309   25.5289 H           1 FSN       0.3180
     53 H23        11.1603  -14.4690   28.4875 H           1 FSN       0.3180
     54 H24        10.0839  -15.6603   28.3115 H           1 FSN       0.3180
     55 H25        14.2636   -9.3758   23.2743 H           1 FSN       0.0654
@<TRIPOS>BOND
     1     1     2   2
     2     2     3  am
     3     2    30   1
     4     3     4   1
     5     3    12  am
     6     4     5   1
     7     5     6  ar
     8     5    11  ar
     9     6     7  ar
    10     7     8  ar
    11     8     9   1
    12     8    10  ar
    13    10    11  ar
    14    12    13   2
    15    12    14   1
    16    14    15   1
    17    14    30   1
    18    15    16   1
    19    15    19   1
    20    16    17   1
    21    16    20   1
    22    17    18   1
    23    18    19   1
    24    20    21   1
    25    20    30   1
    26    21    22  ar
    27    21    26  ar
    28    22    23  ar
    29    23    24  ar
    30    24    25  ar
    31    24    27   1
    32    25    26  ar
    33    27    28  ar
    34    27    29  ar
    35     4    31   1
    36     4    32   1
    37     6    33   1
    38     7    34   1
    39    10    35   1
    40    11    36   1
    41    14    37   1
    42    15    38   1
    43    16    39   1
    44    17    40   1
    45    17    41   1
    46    18    42   1
    47    18    43   1
    48    19    44   1
    49    19    45   1
    50    20    46   1
    51    22    47   1
    52    23    48   1
    53    25    49   1
    54    26    50   1
    55    28    51   1
    56    28    52   1
    57    29    53   1
    58    29    54   1
    59    30    55   1
@<TRIPOS>SUBSTRUCTURE
     1  FSN      2

