@<TRIPOS>MOLECULE
1oyt_ligand_009
    55    59
SMALL
GAST_HUCK
****
This file was generated by PARSER (from files_GN.cpp)

@<TRIPOS>ATOM
      1 O21        14.9075  -10.6951   14.5963 O.2         1 FSN      -0.3850
      2 C20        15.6811  -11.6010   14.8349 C.2         1 FSN       0.2221
      3 N19        15.6615  -12.3606   15.9235 N.am        1 FSN      -0.1734
      4 C23        14.6942  -12.2692   16.9991 C.3         1 FSN       0.0905
      5 C24        15.3085  -12.1209   18.3492 C.ar        1 FSN      -0.0199
      6 C32        16.2695  -11.1071   18.5792 C.ar        1 FSN      -0.0597
      7 C31        16.8767  -10.9655   19.8388 C.ar        1 FSN      -0.0348
      8 C30        16.5210  -11.8253   20.8970 C.ar        1 FSN       0.1248
      9 F29        17.0723  -11.6807   22.0711 F           1 FSN      -0.1893
     10 C26        15.5692  -12.8402   20.6810 C.ar        1 FSN      -0.0348
     11 C25        14.9735  -12.9897   19.4127 C.ar        1 FSN      -0.0597
     12 C17        16.6325  -13.2493   15.8459 C.2         1 FSN       0.2202
     13 O18        16.8688  -14.1016   16.6994 O.2         1 FSN      -0.3852
     14 C16        17.4475  -13.0977   14.6666 C.3         1 FSN       0.1237
     15 C15        17.4406  -14.3420   13.7391 C.3         1 FSN       0.0043
     16 N11        16.3940  -14.0893   12.7391 N.4         1 FSN       0.2554
     17 C12        16.7252  -14.9477   11.5668 C.3         1 FSN      -0.0294
     18 C13        18.2255  -15.3011   11.6635 C.3         1 FSN      -0.0072
     19 C14        18.7282  -14.5853   12.9262 C.3         1 FSN      -0.0022
     20 C10        16.3228  -12.6164   12.5232 C.3         1 FSN       0.0362
     21 C7         15.0531  -12.2082   11.8286 C.ar        1 FSN       0.0072
     22 C8         13.8090  -12.0915   12.4989 C.ar        1 FSN      -0.0548
     23 C9         12.6369  -11.7075   11.8077 C.ar        1 FSN      -0.0632
     24 C4         12.6414  -11.4633   10.4085 C.ar        1 FSN       0.0188
     25 C5         13.8703  -11.6767    9.7278 C.ar        1 FSN      -0.0632
     26 C6         15.0496  -12.0150   10.4231 C.ar        1 FSN      -0.0548
     27 C3         11.4888  -11.0213    9.7310 C.cat       1 FSN       0.2318
     28 N1         10.4016  -10.7197   10.3215 N.pl3       1 FSN      -0.2729
     29 N2         11.4445  -10.8671    8.4596 N.pl3       1 FSN      -0.2729
     30 C22        16.7166  -11.9738   13.9022 C.3         1 FSN       0.1316
     31 H1         14.0650  -13.1623   16.9523 H           1 FSN       0.0733
     32 H2         14.0254  -11.4173   16.8603 H           1 FSN       0.0733
     33 H3         16.5412  -10.4735   17.8237 H           1 FSN       0.0548
     34 H4         17.5771  -10.2356   19.9886 H           1 FSN       0.0587
     35 H5         15.3100  -13.4695   21.4448 H           1 FSN       0.0587
     36 H6         14.2887  -13.7385   19.2790 H           1 FSN       0.0548
     37 H7         18.4620  -12.8084   14.9557 H           1 FSN       0.0632
     38 H8         17.2067  -15.2569   14.2962 H           1 FSN       0.0882
     39 H9         15.5074  -14.3966   13.1301 H           1 FSN       0.2057
     40 H10        16.5004  -14.4598   10.6168 H           1 FSN       0.0815
     41 H11        16.1226  -15.8571   11.6231 H           1 FSN       0.0815
     42 H12        18.7737  -14.9671   10.7767 H           1 FSN       0.0319
     43 H13        18.3534  -16.3827   11.7649 H           1 FSN       0.0319
     44 H14        19.4485  -15.1966   13.4700 H           1 FSN       0.0323
     45 H15        19.2088  -13.6440   12.6482 H           1 FSN       0.0323
     46 H16        17.1586  -12.3507   11.8628 H           1 FSN       0.1048
     47 H17        13.7793  -12.2002   13.5219 H           1 FSN       0.0559
     48 H18        11.7779  -11.6017   12.3611 H           1 FSN       0.0599
     49 H19        13.9442  -11.5447    8.7142 H           1 FSN       0.0599
     50 H20        15.9126  -12.1367    9.8813 H           1 FSN       0.0559
     51 H21         9.6670  -10.4069    9.8302 H           1 FSN       0.3180
     52 H22        10.3251  -10.7865   11.2479 H           1 FSN       0.3180
     53 H23        12.1853  -11.0482    7.9247 H           1 FSN       0.3180
     54 H24        10.6610  -10.5544    8.0517 H           1 FSN       0.3180
     55 H25        17.3790  -11.1160   13.7468 H           1 FSN       0.0654
@<TRIPOS>BOND
     1     1     2   2
     2     2     3  am
     3     2    30   1
     4     3     4   1
     5     3    12  am
     6     4     5   1
     7     5     6  ar
     8     5    11  ar
     9     6     7  ar
    10     7     8  ar
    11     8     9   1
    12     8    10  ar
    13    10    11  ar
    14    12    13   2
    15    12    14   1
    16    14    15   1
    17    14    30   1
    18    15    16   1
    19    15    19   1
    20    16    17   1
    21    16    20   1
    22    17    18   1
    23    18    19   1
    24    20    21   1
    25    20    30   1
    26    21    22  ar
    27    21    26  ar
    28    22    23  ar
    29    23    24  ar
    30    24    25  ar
    31    24    27   1
    32    25    26  ar
    33    27    28  ar
    34    27    29  ar
    35     4    31   1
    36     4    32   1
    37     6    33   1
    38     7    34   1
    39    10    35   1
    40    11    36   1
    41    14    37   1
    42    15    38   1
    43    16    39   1
    44    17    40   1
    45    17    41   1
    46    18    42   1
    47    18    43   1
    48    19    44   1
    49    19    45   1
    50    20    46   1
    51    22    47   1
    52    23    48   1
    53    25    49   1
    54    26    50   1
    55    28    51   1
    56    28    52   1
    57    29    53   1
    58    29    54   1
    59    30    55   1
@<TRIPOS>SUBSTRUCTURE
     1  FSN      2

