@<TRIPOS>MOLECULE
1oyt_ligand_058
    55    59
SMALL
GAST_HUCK
****
This file was generated by PARSER (from files_GN.cpp)

@<TRIPOS>ATOM
      1 O21        15.2744  -11.0017   20.5817 O.2         1 FSN      -0.3850
      2 C20        14.2499  -10.3523   20.7510 C.2         1 FSN       0.2221
      3 N19        13.3706  -10.0616   19.8127 N.am        1 FSN      -0.1734
      4 C23        13.4668  -10.4797   18.4332 C.3         1 FSN       0.0905
      5 C24        13.4692   -9.3239   17.5002 C.ar        1 FSN      -0.0199
      6 C32        12.9624   -8.0592   17.8846 C.ar        1 FSN      -0.0597
      7 C31        12.9576   -6.9765   17.0000 C.ar        1 FSN      -0.0348
      8 C30        13.4775   -7.1327   15.6996 C.ar        1 FSN       0.1248
      9 F29        13.4737   -6.1283   14.8695 F           1 FSN      -0.1893
     10 C26        13.9944   -8.3778   15.2990 C.ar        1 FSN      -0.0348
     11 C25        13.9845   -9.4664   16.1920 C.ar        1 FSN      -0.0597
     12 C17        12.3799   -9.3773   20.3655 C.2         1 FSN       0.2202
     13 O18        11.3302   -8.9867   19.7993 O.2         1 FSN      -0.3852
     14 C16        12.5735   -9.0925   21.7436 C.3         1 FSN       0.1237
     15 C15        11.4681   -9.6314   22.6947 C.3         1 FSN       0.0043
     16 N11        12.1319  -10.5354   23.6598 N.4         1 FSN       0.2554
     17 C12        12.1103   -9.8657   24.9786 C.3         1 FSN      -0.0294
     18 C13        10.7946   -9.0793   24.9740 C.3         1 FSN      -0.0072
     19 C14        10.7033   -8.5693   23.5291 C.3         1 FSN      -0.0022
     20 C10        13.4595  -10.9577   23.1277 C.3         1 FSN       0.0362
     21 C7         13.4196  -12.3936   22.6834 C.ar        1 FSN       0.0072
     22 C8         12.2013  -13.0777   22.4648 C.ar        1 FSN      -0.0548
     23 C9         12.1810  -14.4072   22.0131 C.ar        1 FSN      -0.0632
     24 C4         13.3788  -15.1219   21.7522 C.ar        1 FSN       0.0188
     25 C5         14.5976  -14.4339   21.9862 C.ar        1 FSN      -0.0632
     26 C6         14.6173  -13.1043   22.4428 C.ar        1 FSN      -0.0548
     27 C3         13.3609  -16.4459   21.2798 C.cat       1 FSN       0.2318
     28 N1         14.4038  -17.0348   20.8329 N.pl3       1 FSN      -0.2729
     29 N2         12.3005  -17.1593   21.2647 N.pl3       1 FSN      -0.2729
     30 C22        13.8493   -9.8909   22.0568 C.3         1 FSN       0.1316
     31 H1         12.6408  -11.1416   18.1605 H           1 FSN       0.0733
     32 H2         14.3751  -11.0786   18.3111 H           1 FSN       0.0733
     33 H3         12.6629   -7.8293   18.7396 H           1 FSN       0.0548
     34 H4         12.5775   -6.0741   17.2960 H           1 FSN       0.0587
     35 H5         14.3793   -8.4964   14.3596 H           1 FSN       0.0587
     36 H6         14.3688  -10.3632   15.8855 H           1 FSN       0.0548
     37 H7         12.7553   -8.0223   21.8816 H           1 FSN       0.0632
     38 H8         10.7344  -10.2228   22.1385 H           1 FSN       0.0882
     39 H9         11.5457  -11.3684   23.7524 H           1 FSN       0.2057
     40 H10        12.9518   -9.1739   25.0960 H           1 FSN       0.0815
     41 H11        12.1311  -10.5992   25.7882 H           1 FSN       0.0815
     42 H12        10.8083   -8.2609   25.6989 H           1 FSN       0.0319
     43 H13         9.9577   -9.7476   25.1953 H           1 FSN       0.0319
     44 H14         9.6621   -8.4816   23.2107 H           1 FSN       0.0323
     45 H15        11.1696   -7.5822   23.4644 H           1 FSN       0.0323
     46 H16        14.2042  -10.8809   23.9264 H           1 FSN       0.1048
     47 H17        11.3079  -12.6097   22.6185 H           1 FSN       0.0559
     48 H18        11.2677  -14.8400   21.8593 H           1 FSN       0.0599
     49 H19        15.4980  -14.8926   21.8324 H           1 FSN       0.0599
     50 H20        15.5251  -12.6525   22.5871 H           1 FSN       0.0559
     51 H21        14.3496  -17.9179   20.5292 H           1 FSN       0.3180
     52 H22        15.2239  -16.5902   20.7991 H           1 FSN       0.3180
     53 H23        11.4911  -16.8171   21.5801 H           1 FSN       0.3180
     54 H24        12.3301  -18.0370   20.9423 H           1 FSN       0.3180
     55 H25        14.6212   -9.2199   22.4530 H           1 FSN       0.0654
@<TRIPOS>BOND
     1     1     2   2
     2     2     3  am
     3     2    30   1
     4     3     4   1
     5     3    12  am
     6     4     5   1
     7     5     6  ar
     8     5    11  ar
     9     6     7  ar
    10     7     8  ar
    11     8     9   1
    12     8    10  ar
    13    10    11  ar
    14    12    13   2
    15    12    14   1
    16    14    15   1
    17    14    30   1
    18    15    16   1
    19    15    19   1
    20    16    17   1
    21    16    20   1
    22    17    18   1
    23    18    19   1
    24    20    21   1
    25    20    30   1
    26    21    22  ar
    27    21    26  ar
    28    22    23  ar
    29    23    24  ar
    30    24    25  ar
    31    24    27   1
    32    25    26  ar
    33    27    28  ar
    34    27    29  ar
    35     4    31   1
    36     4    32   1
    37     6    33   1
    38     7    34   1
    39    10    35   1
    40    11    36   1
    41    14    37   1
    42    15    38   1
    43    16    39   1
    44    17    40   1
    45    17    41   1
    46    18    42   1
    47    18    43   1
    48    19    44   1
    49    19    45   1
    50    20    46   1
    51    22    47   1
    52    23    48   1
    53    25    49   1
    54    26    50   1
    55    28    51   1
    56    28    52   1
    57    29    53   1
    58    29    54   1
    59    30    55   1
@<TRIPOS>SUBSTRUCTURE
     1  FSN      2

