@<TRIPOS>MOLECULE
1oyt_ligand_019
    55    59
SMALL
GAST_HUCK
****
This file was generated by PARSER (from files_GN.cpp)

@<TRIPOS>ATOM
      1 O21        17.8917  -12.2173   11.5813 O.2         1 FSN      -0.3850
      2 C20        17.4539  -13.3541   11.4754 C.2         1 FSN       0.2221
      3 N19        16.5365  -13.7365   10.6017 N.am        1 FSN      -0.1734
      4 C23        15.9909  -12.9108    9.5450 C.3         1 FSN       0.0905
      5 C24        14.6273  -12.3834    9.8235 C.ar        1 FSN      -0.0199
      6 C32        14.2460  -12.0245   11.1403 C.ar        1 FSN      -0.0597
      7 C31        12.9818  -11.4643   11.3950 C.ar        1 FSN      -0.0348
      8 C30        12.0869  -11.2280   10.3346 C.ar        1 FSN       0.1248
      9 F29        10.9236  -10.6861   10.5720 F           1 FSN      -0.1893
     10 C26        12.4592  -11.5592    9.0196 C.ar        1 FSN      -0.0348
     11 C25        13.7166  -12.1365    8.7674 C.ar        1 FSN      -0.0597
     12 C17        16.2385  -15.0076   10.8105 C.2         1 FSN       0.2202
     13 O18        15.4153  -15.6506   10.1701 O.2         1 FSN      -0.3852
     14 C16        16.9859  -15.5871   11.8985 C.3         1 FSN       0.1237
     15 C15        17.9670  -16.7325   11.5123 C.3         1 FSN       0.0043
     16 N11        19.2393  -16.3998   12.1883 N.4         1 FSN       0.2554
     17 C12        19.2573  -17.1833   13.4472 C.3         1 FSN      -0.0294
     18 C13        18.6527  -18.5328   13.0413 C.3         1 FSN      -0.0072
     19 C14        17.5858  -18.1588   11.9937 C.3         1 FSN      -0.0022
     20 C10        19.3469  -14.9200   12.3196 C.3         1 FSN       0.0362
     21 C7         20.3090  -14.3892   11.2890 C.ar        1 FSN       0.0072
     22 C8         21.6815  -14.2266   11.6133 C.ar        1 FSN      -0.0548
     23 C9         22.5963  -13.6973   10.6867 C.ar        1 FSN      -0.0632
     24 C4         22.1802  -13.2899    9.3966 C.ar        1 FSN       0.0188
     25 C5         20.8319  -13.5470    9.0453 C.ar        1 FSN      -0.0632
     26 C6         19.9191  -14.1035    9.9611 C.ar        1 FSN      -0.0548
     27 C3         23.0560  -12.6355    8.5161 C.cat       1 FSN       0.2318
     28 N1         24.3267  -12.7378    8.5797 N.pl3       1 FSN      -0.2729
     29 N2         22.6325  -11.8549    7.5996 N.pl3       1 FSN      -0.2729
     30 C22        17.8677  -14.4120   12.3585 C.3         1 FSN       0.1316
     31 H1         16.0046  -13.4917    8.6176 H           1 FSN       0.0733
     32 H2         16.6312  -12.0412    9.3622 H           1 FSN       0.0733
     33 H3         14.8903  -12.1678   11.9229 H           1 FSN       0.0548
     34 H4         12.7181  -11.2196   12.3542 H           1 FSN       0.0587
     35 H5         11.8236  -11.3719    8.2418 H           1 FSN       0.0587
     36 H6         13.9758  -12.3518    7.8032 H           1 FSN       0.0548
     37 H7         16.3034  -15.8843   12.7012 H           1 FSN       0.0632
     38 H8         18.1481  -16.7455   10.4336 H           1 FSN       0.0882
     39 H9         20.0088  -16.7431   11.6092 H           1 FSN       0.2057
     40 H10        18.6396  -16.7184   14.2239 H           1 FSN       0.0815
     41 H11        20.2775  -17.2979   13.8204 H           1 FSN       0.0815
     42 H12        18.2259  -19.0552   13.8992 H           1 FSN       0.0319
     43 H13        19.4267  -19.1580   12.5875 H           1 FSN       0.0319
     44 H14        17.6062  -18.8737   11.1688 H           1 FSN       0.0323
     45 H15        16.5918  -18.1841   12.4422 H           1 FSN       0.0323
     46 H16        19.7748  -14.6783   13.2999 H           1 FSN       0.1048
     47 H17        22.0271  -14.4958   12.5377 H           1 FSN       0.0559
     48 H18        23.5683  -13.5799   10.9816 H           1 FSN       0.0599
     49 H19        20.5006  -13.3297    8.1043 H           1 FSN       0.0599
     50 H20        18.9633  -14.2776    9.6596 H           1 FSN       0.0559
     51 H21        24.8609  -12.2649    7.9705 H           1 FSN       0.3180
     52 H22        24.7402  -13.2789    9.2169 H           1 FSN       0.3180
     53 H23        21.7178  -11.6895    7.5054 H           1 FSN       0.3180
     54 H24        23.2409  -11.4178    7.0383 H           1 FSN       0.3180
     55 H25        17.5949  -14.1340   13.3863 H           1 FSN       0.0654
@<TRIPOS>BOND
     1     1     2   2
     2     2     3  am
     3     2    30   1
     4     3     4   1
     5     3    12  am
     6     4     5   1
     7     5     6  ar
     8     5    11  ar
     9     6     7  ar
    10     7     8  ar
    11     8     9   1
    12     8    10  ar
    13    10    11  ar
    14    12    13   2
    15    12    14   1
    16    14    15   1
    17    14    30   1
    18    15    16   1
    19    15    19   1
    20    16    17   1
    21    16    20   1
    22    17    18   1
    23    18    19   1
    24    20    21   1
    25    20    30   1
    26    21    22  ar
    27    21    26  ar
    28    22    23  ar
    29    23    24  ar
    30    24    25  ar
    31    24    27   1
    32    25    26  ar
    33    27    28  ar
    34    27    29  ar
    35     4    31   1
    36     4    32   1
    37     6    33   1
    38     7    34   1
    39    10    35   1
    40    11    36   1
    41    14    37   1
    42    15    38   1
    43    16    39   1
    44    17    40   1
    45    17    41   1
    46    18    42   1
    47    18    43   1
    48    19    44   1
    49    19    45   1
    50    20    46   1
    51    22    47   1
    52    23    48   1
    53    25    49   1
    54    26    50   1
    55    28    51   1
    56    28    52   1
    57    29    53   1
    58    29    54   1
    59    30    55   1
@<TRIPOS>SUBSTRUCTURE
     1  FSN      2

