@<TRIPOS>MOLECULE
1oyt_ligand_048
    55    59
SMALL
GAST_HUCK
****
This file was generated by PARSER (from files_GN.cpp)

@<TRIPOS>ATOM
      1 O21        18.2561  -17.7157   19.1519 O.2         1 FSN      -0.3850
      2 C20        19.0667  -17.9809   20.0319 C.2         1 FSN       0.2221
      3 N19        20.2540  -18.5317   19.8365 N.am        1 FSN      -0.1734
      4 C23        20.7907  -18.9127   18.5484 C.3         1 FSN       0.0905
      5 C24        19.8733  -19.7878   17.7677 C.ar        1 FSN      -0.0199
      6 C32        19.0613  -20.7223   18.4538 C.ar        1 FSN      -0.0597
      7 C31        18.2002  -21.5814   17.7551 C.ar        1 FSN      -0.0348
      8 C30        18.1526  -21.5391   16.3508 C.ar        1 FSN       0.1248
      9 F29        17.3604  -22.3496   15.7039 F           1 FSN      -0.1893
     10 C26        18.9675  -20.6300   15.6501 C.ar        1 FSN      -0.0348
     11 C25        19.8162  -19.7525   16.3552 C.ar        1 FSN      -0.0597
     12 C17        20.8557  -18.7064   20.9984 C.2         1 FSN       0.2202
     13 O18        21.9559  -19.2173   21.1624 O.2         1 FSN      -0.3852
     14 C16        20.0434  -18.3008   22.1157 C.3         1 FSN       0.1237
     15 C15        20.6385  -17.1746   23.0070 C.3         1 FSN       0.0043
     16 N11        19.5954  -16.1244   23.0781 N.4         1 FSN       0.2554
     17 C12        18.9642  -16.2719   24.4132 C.3         1 FSN      -0.0294
     18 C13        20.1198  -16.6620   25.3423 C.3         1 FSN      -0.0072
     19 C14        20.9979  -17.5673   24.4660 C.3         1 FSN      -0.0022
     20 C10        18.6887  -16.2326   21.8936 C.3         1 FSN       0.0362
     21 C7         18.9572  -15.1836   20.8471 C.ar        1 FSN       0.0072
     22 C8         20.2611  -14.8831   20.3887 C.ar        1 FSN      -0.0548
     23 C9         20.4818  -13.9401   19.3684 C.ar        1 FSN      -0.0632
     24 C4         19.4075  -13.2660   18.7343 C.ar        1 FSN       0.0188
     25 C5         18.1002  -13.5813   19.1880 C.ar        1 FSN      -0.0632
     26 C6         17.8817  -14.5096   20.2218 C.ar        1 FSN      -0.0548
     27 C3         19.6239  -12.3454   17.6917 C.cat       1 FSN       0.2318
     28 N1         20.7724  -11.8437   17.4404 N.pl3       1 FSN      -0.2729
     29 N2         18.6908  -11.9514   16.9195 N.pl3       1 FSN      -0.2729
     30 C22        18.8011  -17.7152   21.4225 C.3         1 FSN       0.1316
     31 H1         21.7262  -19.4643   18.6675 H           1 FSN       0.0733
     32 H2         21.0433  -18.0000   17.9939 H           1 FSN       0.0733
     33 H3         19.0954  -20.7801   19.4752 H           1 FSN       0.0548
     34 H4         17.6155  -22.2408   18.2747 H           1 FSN       0.0587
     35 H5         18.9435  -20.6078   14.6285 H           1 FSN       0.0587
     36 H6         20.4032  -19.1045   15.8240 H           1 FSN       0.0548
     37 H7         19.7660  -19.1851   22.6990 H           1 FSN       0.0632
     38 H8         21.5337  -16.7484   22.5454 H           1 FSN       0.0882
     39 H9         20.0576  -15.2115   23.0578 H           1 FSN       0.2057
     40 H10        18.2112  -17.0682   24.4149 H           1 FSN       0.0815
     41 H11        18.4977  -15.3368   24.7305 H           1 FSN       0.0815
     42 H12        19.7621  -17.1797   26.2355 H           1 FSN       0.0319
     43 H13        20.6758  -15.7692   25.6417 H           1 FSN       0.0319
     44 H14        22.0561  -17.3914   24.6779 H           1 FSN       0.0323
     45 H15        20.7818  -18.6172   24.6751 H           1 FSN       0.0323
     46 H16        17.6554  -16.0871   22.2319 H           1 FSN       0.1048
     47 H17        21.0706  -15.3559   20.7849 H           1 FSN       0.0559
     48 H18        21.4478  -13.7721   19.0796 H           1 FSN       0.0599
     49 H19        17.2803  -13.1320   18.7732 H           1 FSN       0.0599
     50 H20        16.9168  -14.7116   20.4975 H           1 FSN       0.0559
     51 H21        20.8741  -11.2302   16.7411 H           1 FSN       0.3180
     52 H22        21.5168  -12.0681   17.9592 H           1 FSN       0.3180
     53 H23        17.8179  -12.2716   17.0230 H           1 FSN       0.3180
     54 H24        18.8693  -11.3356   16.2364 H           1 FSN       0.3180
     55 H25        17.9115  -18.2786   21.7279 H           1 FSN       0.0654
@<TRIPOS>BOND
     1     1     2   2
     2     2     3  am
     3     2    30   1
     4     3     4   1
     5     3    12  am
     6     4     5   1
     7     5     6  ar
     8     5    11  ar
     9     6     7  ar
    10     7     8  ar
    11     8     9   1
    12     8    10  ar
    13    10    11  ar
    14    12    13   2
    15    12    14   1
    16    14    15   1
    17    14    30   1
    18    15    16   1
    19    15    19   1
    20    16    17   1
    21    16    20   1
    22    17    18   1
    23    18    19   1
    24    20    21   1
    25    20    30   1
    26    21    22  ar
    27    21    26  ar
    28    22    23  ar
    29    23    24  ar
    30    24    25  ar
    31    24    27   1
    32    25    26  ar
    33    27    28  ar
    34    27    29  ar
    35     4    31   1
    36     4    32   1
    37     6    33   1
    38     7    34   1
    39    10    35   1
    40    11    36   1
    41    14    37   1
    42    15    38   1
    43    16    39   1
    44    17    40   1
    45    17    41   1
    46    18    42   1
    47    18    43   1
    48    19    44   1
    49    19    45   1
    50    20    46   1
    51    22    47   1
    52    23    48   1
    53    25    49   1
    54    26    50   1
    55    28    51   1
    56    28    52   1
    57    29    53   1
    58    29    54   1
    59    30    55   1
@<TRIPOS>SUBSTRUCTURE
     1  FSN      2

