@<TRIPOS>MOLECULE
1oyt_ligand_017
    55    59
SMALL
GAST_HUCK
****
This file was generated by PARSER (from files_GN.cpp)

@<TRIPOS>ATOM
      1 O21        13.4669  -17.6127   22.0667 O.2         1 FSN      -0.3850
      2 C20        13.4262  -17.5910   20.8462 C.2         1 FSN       0.2221
      3 N19        12.4152  -18.0591   20.1442 N.am        1 FSN      -0.1734
      4 C23        11.1516  -18.5138   20.6771 C.3         1 FSN       0.0905
      5 C24        11.0132  -19.9895   20.5931 C.ar        1 FSN      -0.0199
      6 C32        10.0876  -20.6027   19.7111 C.ar        1 FSN      -0.0597
      7 C31         9.9324  -22.0008   19.6976 C.ar        1 FSN      -0.0348
      8 C30        10.6994  -22.8042   20.5616 C.ar        1 FSN       0.1248
      9 F29        10.5406  -24.1002   20.5651 F           1 FSN      -0.1893
     10 C26        11.6328  -22.2079   21.4288 C.ar        1 FSN      -0.0348
     11 C25        11.7951  -20.8124   21.4352 C.ar        1 FSN      -0.0597
     12 C17        12.7286  -18.0597   18.8659 C.2         1 FSN       0.2202
     13 O18        12.0112  -18.4649   17.9594 O.2         1 FSN      -0.3852
     14 C16        14.0598  -17.5747   18.6265 C.3         1 FSN       0.1237
     15 C15        14.1459  -16.3249   17.7121 C.3         1 FSN       0.0043
     16 N11        14.9877  -15.3587   18.4426 N.4         1 FSN       0.2554
     17 C12        16.3341  -15.4488   17.8444 C.3         1 FSN      -0.0294
     18 C13        16.0410  -15.6230   16.3481 C.3         1 FSN      -0.0072
     19 C14        14.8268  -16.5619   16.3379 C.3         1 FSN      -0.0022
     20 C10        14.8537  -15.6015   19.9147 C.3         1 FSN       0.0362
     21 C7         13.9088  -14.6657   20.6237 C.ar        1 FSN       0.0072
     22 C8         13.0825  -13.7118   19.9810 C.ar        1 FSN      -0.0548
     23 C9         12.2267  -12.8679   20.7126 C.ar        1 FSN      -0.0632
     24 C4         12.1250  -12.9611   22.1245 C.ar        1 FSN       0.0188
     25 C5         12.9636  -13.9055   22.7660 C.ar        1 FSN      -0.0632
     26 C6         13.8585  -14.6964   22.0373 C.ar        1 FSN      -0.0548
     27 C3         11.2356  -12.1654   22.8626 C.cat       1 FSN       0.2318
     28 N1         10.7551  -11.0759   22.4044 N.pl3       1 FSN      -0.2729
     29 N2         10.8395  -12.4846   24.0294 N.pl3       1 FSN      -0.2729
     30 C22        14.5310  -17.1316   20.0258 C.3         1 FSN       0.1316
     31 H1         10.3542  -18.0016   20.1327 H           1 FSN       0.0733
     32 H2         11.0286  -18.2258   21.7241 H           1 FSN       0.0733
     33 H3          9.5154  -20.0357   19.0832 H           1 FSN       0.0548
     34 H4          9.2504  -22.4299   19.0649 H           1 FSN       0.0587
     35 H5         12.1878  -22.7857   22.0642 H           1 FSN       0.0587
     36 H6         12.4659  -20.3930   22.0875 H           1 FSN       0.0548
     37 H7         14.6820  -18.4039   18.2726 H           1 FSN       0.0632
     38 H8         13.1590  -15.8687   17.5629 H           1 FSN       0.0882
     39 H9         14.6664  -14.4189   18.2178 H           1 FSN       0.2057
     40 H10        16.8816  -16.3159   18.2280 H           1 FSN       0.0815
     41 H11        16.9090  -14.5378   18.0347 H           1 FSN       0.0815
     42 H12        16.8926  -16.0476   15.8110 H           1 FSN       0.0319
     43 H13        15.7800  -14.6574   15.9052 H           1 FSN       0.0319
     44 H14        14.1496  -16.3299   15.5159 H           1 FSN       0.0323
     45 H15        15.1644  -17.5936   16.2129 H           1 FSN       0.0323
     46 H16        15.8325  -15.4214   20.3778 H           1 FSN       0.1048
     47 H17        13.0781  -13.6101   18.9637 H           1 FSN       0.0559
     48 H18        11.6529  -12.2025   20.1908 H           1 FSN       0.0599
     49 H19        12.9429  -14.0185   23.7834 H           1 FSN       0.0599
     50 H20        14.4591  -15.3382   22.5620 H           1 FSN       0.0559
     51 H21        10.1602  -10.5760   22.9268 H           1 FSN       0.3180
     52 H22        10.9925  -10.7655   21.5558 H           1 FSN       0.3180
     53 H23        11.1259  -13.2873   24.4129 H           1 FSN       0.3180
     54 H24        10.2151  -11.9618   24.4941 H           1 FSN       0.3180
     55 H25        15.4363  -17.6818   20.2990 H           1 FSN       0.0654
@<TRIPOS>BOND
     1     1     2   2
     2     2     3  am
     3     2    30   1
     4     3     4   1
     5     3    12  am
     6     4     5   1
     7     5     6  ar
     8     5    11  ar
     9     6     7  ar
    10     7     8  ar
    11     8     9   1
    12     8    10  ar
    13    10    11  ar
    14    12    13   2
    15    12    14   1
    16    14    15   1
    17    14    30   1
    18    15    16   1
    19    15    19   1
    20    16    17   1
    21    16    20   1
    22    17    18   1
    23    18    19   1
    24    20    21   1
    25    20    30   1
    26    21    22  ar
    27    21    26  ar
    28    22    23  ar
    29    23    24  ar
    30    24    25  ar
    31    24    27   1
    32    25    26  ar
    33    27    28  ar
    34    27    29  ar
    35     4    31   1
    36     4    32   1
    37     6    33   1
    38     7    34   1
    39    10    35   1
    40    11    36   1
    41    14    37   1
    42    15    38   1
    43    16    39   1
    44    17    40   1
    45    17    41   1
    46    18    42   1
    47    18    43   1
    48    19    44   1
    49    19    45   1
    50    20    46   1
    51    22    47   1
    52    23    48   1
    53    25    49   1
    54    26    50   1
    55    28    51   1
    56    28    52   1
    57    29    53   1
    58    29    54   1
    59    30    55   1
@<TRIPOS>SUBSTRUCTURE
     1  FSN      2

