@<TRIPOS>MOLECULE
1oyt_ligand_028
    55    59
SMALL
GAST_HUCK
****
This file was generated by PARSER (from files_GN.cpp)

@<TRIPOS>ATOM
      1 O21        19.4630  -15.1456    6.7179 O.2         1 FSN      -0.3850
      2 C20        19.6344  -15.7037    7.7922 C.2         1 FSN       0.2221
      3 N19        20.2848  -15.1956    8.8238 N.am        1 FSN      -0.1734
      4 C23        20.8751  -13.8726    8.8544 C.3         1 FSN       0.0905
      5 C24        19.9161  -12.7793    9.1938 C.ar        1 FSN      -0.0199
      6 C32        18.5626  -12.7967    8.7657 C.ar        1 FSN      -0.0597
      7 C31        17.6543  -11.8043    9.1825 C.ar        1 FSN      -0.0348
      8 C30        18.0988  -10.7300    9.9750 C.ar        1 FSN       0.1248
      9 F29        17.2539   -9.8127   10.3638 F           1 FSN      -0.1893
     10 C26        19.4556  -10.6445   10.3359 C.ar        1 FSN      -0.0348
     11 C25        20.3496  -11.6673    9.9564 C.ar        1 FSN      -0.0597
     12 C17        20.3858  -16.1163    9.7758 C.2         1 FSN       0.2202
     13 O18        20.9629  -15.9681   10.8397 O.2         1 FSN      -0.3852
     14 C16        19.8532  -17.3987    9.3704 C.3         1 FSN       0.1237
     15 C15        18.7356  -18.0229   10.2549 C.3         1 FSN       0.0043
     16 N11        17.5678  -18.2376    9.3649 N.4         1 FSN       0.2554
     17 C12        17.4815  -19.6968    9.1153 C.3         1 FSN      -0.0294
     18 C13        17.9088  -20.3169   10.4489 C.3         1 FSN      -0.0072
     19 C14        19.0453  -19.3946   10.9143 C.3         1 FSN      -0.0022
     20 C10        17.6760  -17.3518    8.1705 C.3         1 FSN       0.0362
     21 C7         16.7381  -16.1735    8.2775 C.ar        1 FSN       0.0072
     22 C8         15.7937  -15.9162    7.2556 C.ar        1 FSN      -0.0548
     23 C9         14.8988  -14.8340    7.3478 C.ar        1 FSN      -0.0632
     24 C4         14.9270  -13.9277    8.4437 C.ar        1 FSN       0.0188
     25 C5         15.8866  -14.1793    9.4553 C.ar        1 FSN      -0.0632
     26 C6         16.7608  -15.2841    9.3746 C.ar        1 FSN      -0.0548
     27 C3         14.0896  -12.8004    8.4942 C.cat       1 FSN       0.2318
     28 N1         13.3225  -12.4545    7.5270 N.pl3       1 FSN      -0.2729
     29 N2         14.0449  -12.0153    9.5075 N.pl3       1 FSN      -0.2729
     30 C22        19.2039  -17.0619    8.0169 C.3         1 FSN       0.1316
     31 H1         21.3361  -13.6508    7.8879 H           1 FSN       0.0733
     32 H2         21.7070  -13.8719    9.5643 H           1 FSN       0.0733
     33 H3         18.2095  -13.5499    8.1773 H           1 FSN       0.0548
     34 H4         16.6670  -11.8934    8.9204 H           1 FSN       0.0587
     35 H5         19.7962   -9.8502   10.8851 H           1 FSN       0.0587
     36 H6         21.3302  -11.5929   10.2439 H           1 FSN       0.0548
     37 H7         20.6929  -18.0897    9.2230 H           1 FSN       0.0632
     38 H8         18.4417  -17.3307   11.0488 H           1 FSN       0.0882
     39 H9         16.7270  -17.9832    9.8867 H           1 FSN       0.2057
     40 H10        18.1662  -20.0139    8.3228 H           1 FSN       0.0815
     41 H11        16.4642  -19.9873    8.8512 H           1 FSN       0.0815
     42 H12        18.2391  -21.3518   10.3301 H           1 FSN       0.0319
     43 H13        17.0772  -20.2838   11.1596 H           1 FSN       0.0319
     44 H14        19.0570  -19.3218   12.0049 H           1 FSN       0.0323
     45 H15        20.0058  -19.7988   10.5871 H           1 FSN       0.0323
     46 H16        17.3829  -17.9217    7.2796 H           1 FSN       0.1048
     47 H17        15.7484  -16.5184    6.4329 H           1 FSN       0.0559
     48 H18        14.2404  -14.7043    6.5784 H           1 FSN       0.0599
     49 H19        15.9386  -13.6017   10.2916 H           1 FSN       0.0599
     50 H20        17.4128  -15.4286   10.1432 H           1 FSN       0.0559
     51 H21        12.7917  -11.6883    7.6046 H           1 FSN       0.3180
     52 H22        13.2924  -12.9541    6.7432 H           1 FSN       0.3180
     53 H23        14.5692  -12.1852   10.2584 H           1 FSN       0.3180
     54 H24        13.5149  -11.2459    9.4805 H           1 FSN       0.3180
     55 H25        19.6299  -17.7067    7.2382 H           1 FSN       0.0654
@<TRIPOS>BOND
     1     1     2   2
     2     2     3  am
     3     2    30   1
     4     3     4   1
     5     3    12  am
     6     4     5   1
     7     5     6  ar
     8     5    11  ar
     9     6     7  ar
    10     7     8  ar
    11     8     9   1
    12     8    10  ar
    13    10    11  ar
    14    12    13   2
    15    12    14   1
    16    14    15   1
    17    14    30   1
    18    15    16   1
    19    15    19   1
    20    16    17   1
    21    16    20   1
    22    17    18   1
    23    18    19   1
    24    20    21   1
    25    20    30   1
    26    21    22  ar
    27    21    26  ar
    28    22    23  ar
    29    23    24  ar
    30    24    25  ar
    31    24    27   1
    32    25    26  ar
    33    27    28  ar
    34    27    29  ar
    35     4    31   1
    36     4    32   1
    37     6    33   1
    38     7    34   1
    39    10    35   1
    40    11    36   1
    41    14    37   1
    42    15    38   1
    43    16    39   1
    44    17    40   1
    45    17    41   1
    46    18    42   1
    47    18    43   1
    48    19    44   1
    49    19    45   1
    50    20    46   1
    51    22    47   1
    52    23    48   1
    53    25    49   1
    54    26    50   1
    55    28    51   1
    56    28    52   1
    57    29    53   1
    58    29    54   1
    59    30    55   1
@<TRIPOS>SUBSTRUCTURE
     1  FSN      2

