@<TRIPOS>MOLECULE
1p1q_ligand_000
    23    23
SMALL
GAST_HUCK
****
This file was generated by PARSER (from files_GN.cpp)

@<TRIPOS>ATOM
      1 N          46.9545   24.6569   42.4821 N.4         1 MOL       0.2333
      2 CA         47.1550   26.1160   42.5547 C.3         1 MOL       0.0299
      3 C          46.9926   26.5329   43.9693 C.2         1 MOL       0.0853
      4 OT1        46.1595   27.5106   44.3635 O.co2       1 MOL      -0.5642
      5 OT2        47.8059   26.0180   44.9156 O.co2       1 MOL      -0.5642
      6 CB         46.2981   26.8718   41.4952 C.3         1 MOL       0.0201
      7 CG         44.8459   26.8317   41.6745 C.2         1 MOL       0.0355
      8 CD1        44.0997   27.8040   42.1936 C.2         1 MOL       0.1867
      9 CD2        43.9610   25.9182   41.2533 C.2         1 MOL       0.1229
     10 CE2        44.2117   24.7646   40.4120 C.3         1 MOL       0.0048
     11 OE1        44.4559   28.9122   42.5657 O.2         1 MOL      -0.4259
     12 NE1        42.8571   27.4129   42.1458 N.am        1 MOL      -0.1399
     13 OE2        42.7077   26.2322   41.5911 O.3         1 MOL      -0.1759
     14 H1         47.1247   24.3356   41.5276 H           1 MOL       0.2011
     15 H2         45.9965   24.4275   42.7571 H           1 MOL       0.2011
     16 H3         47.6082   24.1798   43.1138 H           1 MOL       0.2011
     17 H4         48.2045   26.2867   42.3029 H           1 MOL       0.1035
     18 H5         46.5395   26.4770   40.5057 H           1 MOL       0.0385
     19 H6         46.6389   27.9140   41.4832 H           1 MOL       0.0385
     20 H7         43.2789   24.2455   40.1884 H           1 MOL       0.0455
     21 H8         44.8742   24.0571   40.9036 H           1 MOL       0.0455
     22 H9         44.6586   25.0782   39.4701 H           1 MOL       0.0455
     23 H10        42.1031   27.9514   42.4575 H           1 MOL       0.2313
@<TRIPOS>BOND
     1     1     2   1
     2     2     3   1
     3     2     6   1
     4     3     4  ar
     5     3     5  ar
     6     6     7   1
     7     7     8   1
     8     7     9   2
     9     8    11   2
    10     8    12  am
    11     9    10   1
    12     9    13   1
    13    12    13   1
    14     1    14   1
    15     1    15   1
    16     1    16   1
    17     2    17   1
    18     6    18   1
    19     6    19   1
    20    10    20   1
    21    10    21   1
    22    10    22   1
    23    12    23   1
@<TRIPOS>SUBSTRUCTURE
     1  MOL      2

