@<TRIPOS>MOLECULE
1p1q_ligand_003
    23    23
SMALL
GAST_HUCK
****
This file was generated by PARSER (from files_GN.cpp)

@<TRIPOS>ATOM
      1 N          48.3282   25.1348   42.6426 N.4         1 MOL       0.2333
      2 CA         47.1749   26.0498   42.7165 C.3         1 MOL       0.0299
      3 C          46.9304   26.4497   44.1157 C.2         1 MOL       0.0853
      4 OT1        46.1058   27.4869   44.3771 O.co2       1 MOL      -0.5642
      5 OT2        47.6908   25.9856   45.1329 O.co2       1 MOL      -0.5642
      6 CB         45.9076   25.4138   42.0634 C.3         1 MOL       0.0201
      7 CG         45.9280   25.4116   40.6019 C.2         1 MOL       0.0355
      8 CD1        46.7814   24.7573   39.8271 C.2         1 MOL       0.1867
      9 CD2        45.0942   26.0275   39.7519 C.2         1 MOL       0.1229
     10 CE2        43.9438   26.8467   40.0837 C.3         1 MOL       0.0048
     11 OE1        47.6394   23.9532   40.1557 O.2         1 MOL      -0.4259
     12 NE1        46.4564   25.0092   38.5907 N.am        1 MOL      -0.1399
     13 OE2        45.4204   25.8043   38.4720 O.3         1 MOL      -0.1759
     14 H1         48.5672   24.9823   41.6701 H           1 MOL       0.2011
     15 H2         48.0994   24.2457   43.0819 H           1 MOL       0.2011
     16 H3         49.1368   25.5427   43.1141 H           1 MOL       0.2011
     17 H4         47.4498   26.9564   42.1691 H           1 MOL       0.1035
     18 H5         45.0204   25.9541   42.4027 H           1 MOL       0.0385
     19 H6         45.7951   24.3877   42.4205 H           1 MOL       0.0385
     20 H7         43.4658   27.2176   39.1758 H           1 MOL       0.0455
     21 H8         44.2519   27.7026   40.6869 H           1 MOL       0.0455
     22 H9         43.2108   26.2595   40.6396 H           1 MOL       0.0455
     23 H10        46.8916   24.5945   37.8274 H           1 MOL       0.2313
@<TRIPOS>BOND
     1     1     2   1
     2     2     3   1
     3     2     6   1
     4     3     4  ar
     5     3     5  ar
     6     6     7   1
     7     7     8   1
     8     7     9   2
     9     8    11   2
    10     8    12  am
    11     9    10   1
    12     9    13   1
    13    12    13   1
    14     1    14   1
    15     1    15   1
    16     1    16   1
    17     2    17   1
    18     6    18   1
    19     6    19   1
    20    10    20   1
    21    10    21   1
    22    10    22   1
    23    12    23   1
@<TRIPOS>SUBSTRUCTURE
     1  MOL      2

