@<TRIPOS>MOLECULE
1p1q_ligand_017
    23    23
SMALL
GAST_HUCK
****
This file was generated by PARSER (from files_GN.cpp)

@<TRIPOS>ATOM
      1 N          42.5794   27.0695   42.3957 N.4         1 MOL       0.2333
      2 CA         43.6850   28.0011   42.6779 C.3         1 MOL       0.0299
      3 C          43.2545   29.3732   42.3224 C.2         1 MOL       0.0853
      4 OT1        42.0440   29.8251   42.7193 O.co2       1 MOL      -0.5642
      5 OT2        44.1484   30.3149   41.9481 O.co2       1 MOL      -0.5642
      6 CB         44.9823   27.5511   41.9363 C.3         1 MOL       0.0201
      7 CG         45.5879   26.3479   42.4991 C.2         1 MOL       0.0355
      8 CD1        46.2069   26.2637   43.6710 C.2         1 MOL       0.1867
      9 CD2        45.6860   25.1267   41.9630 C.2         1 MOL       0.1229
     10 CE2        45.1650   24.6849   40.6880 C.3         1 MOL       0.0048
     11 OE1        46.3288   27.1257   44.5315 O.2         1 MOL      -0.4259
     12 NE1        46.6362   25.0375   43.7910 N.am        1 MOL      -0.1399
     13 OE2        46.3255   24.2741   42.7680 O.3         1 MOL      -0.1759
     14 H1         42.8436   26.1246   42.6765 H           1 MOL       0.2011
     15 H2         42.3742   27.0758   41.3963 H           1 MOL       0.2011
     16 H3         41.7431   27.3559   42.9166 H           1 MOL       0.2011
     17 H4         43.8531   27.9749   43.7553 H           1 MOL       0.1035
     18 H5         45.7407   28.3368   41.9830 H           1 MOL       0.0385
     19 H6         44.7432   27.4110   40.8794 H           1 MOL       0.0385
     20 H7         45.3758   23.6245   40.5347 H           1 MOL       0.0455
     21 H8         45.6291   25.2501   39.8779 H           1 MOL       0.0455
     22 H9         44.0838   24.8289   40.6573 H           1 MOL       0.0455
     23 H10        47.0796   24.6998   44.5857 H           1 MOL       0.2313
@<TRIPOS>BOND
     1     1     2   1
     2     2     3   1
     3     2     6   1
     4     3     4  ar
     5     3     5  ar
     6     6     7   1
     7     7     8   1
     8     7     9   2
     9     8    11   2
    10     8    12  am
    11     9    10   1
    12     9    13   1
    13    12    13   1
    14     1    14   1
    15     1    15   1
    16     1    16   1
    17     2    17   1
    18     6    18   1
    19     6    19   1
    20    10    20   1
    21    10    21   1
    22    10    22   1
    23    12    23   1
@<TRIPOS>SUBSTRUCTURE
     1  MOL      2

