@<TRIPOS>MOLECULE
1p1q_ligand_024
    23    23
SMALL
GAST_HUCK
****
This file was generated by PARSER (from files_GN.cpp)

@<TRIPOS>ATOM
      1 N          48.3618   25.4699   42.9041 N.4         1 MOL       0.2333
      2 CA         46.9430   25.4811   42.5141 C.3         1 MOL       0.0299
      3 C          46.7319   24.5061   41.4213 C.2         1 MOL       0.0853
      4 OT1        47.1297   24.8056   40.1636 O.co2       1 MOL      -0.5642
      5 OT2        46.6245   23.1921   41.7215 O.co2       1 MOL      -0.5642
      6 CB         46.5038   26.9337   42.1528 C.3         1 MOL       0.0201
      7 CG         45.0611   27.1444   42.2436 C.2         1 MOL       0.0355
      8 CD1        44.3706   27.2406   43.3705 C.2         1 MOL       0.1867
      9 CD2        44.1650   27.3473   41.2696 C.2         1 MOL       0.1229
     10 CE2        44.4144   27.3717   39.8458 C.3         1 MOL       0.0048
     11 OE1        44.7996   27.2040   44.5144 O.2         1 MOL      -0.4259
     12 NE1        43.1321   27.4944   43.0479 N.am        1 MOL      -0.1399
     13 OE2        42.9329   27.5543   41.7518 O.3         1 MOL      -0.1759
     14 H1         48.5031   26.1423   43.6558 H           1 MOL       0.2011
     15 H2         48.9535   25.7440   42.1203 H           1 MOL       0.2011
     16 H3         48.6238   24.5383   43.2262 H           1 MOL       0.2011
     17 H4         46.3817   25.1410   43.3875 H           1 MOL       0.1035
     18 H5         46.8640   27.1851   41.1522 H           1 MOL       0.0385
     19 H6         46.9888   27.6354   42.8389 H           1 MOL       0.0385
     20 H7         43.4877   27.5398   39.2960 H           1 MOL       0.0455
     21 H8         44.8359   26.4196   39.5219 H           1 MOL       0.0455
     22 H9         45.1095   28.1743   39.5978 H           1 MOL       0.0455
     23 H10        42.4347   27.6605   43.7021 H           1 MOL       0.2313
@<TRIPOS>BOND
     1     1     2   1
     2     2     3   1
     3     2     6   1
     4     3     4  ar
     5     3     5  ar
     6     6     7   1
     7     7     8   1
     8     7     9   2
     9     8    11   2
    10     8    12  am
    11     9    10   1
    12     9    13   1
    13    12    13   1
    14     1    14   1
    15     1    15   1
    16     1    16   1
    17     2    17   1
    18     6    18   1
    19     6    19   1
    20    10    20   1
    21    10    21   1
    22    10    22   1
    23    12    23   1
@<TRIPOS>SUBSTRUCTURE
     1  MOL      2

