@<TRIPOS>MOLECULE
1p1q_ligand_009
    23    23
SMALL
GAST_HUCK
****
This file was generated by PARSER (from files_GN.cpp)

@<TRIPOS>ATOM
      1 N          45.5852   25.2971   41.3773 N.4         1 MOL       0.2333
      2 CA         46.0429   26.5063   42.0741 C.3         1 MOL       0.0299
      3 C          45.1565   26.7676   43.2288 C.2         1 MOL       0.0853
      4 OT1        45.6037   27.5242   44.2579 O.co2       1 MOL      -0.5642
      5 OT2        43.8155   26.6723   43.0942 O.co2       1 MOL      -0.5642
      6 CB         46.2396   27.6811   41.0650 C.3         1 MOL       0.0201
      7 CG         45.0171   28.2778   40.5200 C.2         1 MOL       0.0355
      8 CD1        44.1657   29.0568   41.1718 C.2         1 MOL       0.1867
      9 CD2        44.5328   28.2229   39.2735 C.2         1 MOL       0.1229
     10 CE2        45.1111   27.5454   38.1344 C.3         1 MOL       0.0048
     11 OE1        44.2336   29.4771   42.3172 O.2         1 MOL      -0.4259
     12 NE1        43.2086   29.3746   40.3443 N.am        1 MOL      -0.1399
     13 OE2        43.3830   28.9019   39.1344 O.3         1 MOL      -0.1759
     14 H1         46.2659   25.0460   40.6578 H           1 MOL       0.2011
     15 H2         44.6775   25.4674   40.9462 H           1 MOL       0.2011
     16 H3         45.5062   24.5350   42.0510 H           1 MOL       0.2011
     17 H4         47.0295   26.2715   42.4820 H           1 MOL       0.1035
     18 H5         46.8665   27.3069   40.2494 H           1 MOL       0.0385
     19 H6         46.8234   28.4756   41.5361 H           1 MOL       0.0385
     20 H7         44.4842   27.6804   37.2476 H           1 MOL       0.0455
     21 H8         45.1971   26.4758   38.3360 H           1 MOL       0.0455
     22 H9         46.1015   27.9528   37.9201 H           1 MOL       0.0455
     23 H10        42.4582   29.9289   40.6076 H           1 MOL       0.2313
@<TRIPOS>BOND
     1     1     2   1
     2     2     3   1
     3     2     6   1
     4     3     4  ar
     5     3     5  ar
     6     6     7   1
     7     7     8   1
     8     7     9   2
     9     8    11   2
    10     8    12  am
    11     9    10   1
    12     9    13   1
    13    12    13   1
    14     1    14   1
    15     1    15   1
    16     1    16   1
    17     2    17   1
    18     6    18   1
    19     6    19   1
    20    10    20   1
    21    10    21   1
    22    10    22   1
    23    12    23   1
@<TRIPOS>SUBSTRUCTURE
     1  MOL      2

