@<TRIPOS>MOLECULE
1p1q_ligand_006
    23    23
SMALL
GAST_HUCK
****
This file was generated by PARSER (from files_GN.cpp)

@<TRIPOS>ATOM
      1 N          47.9300   26.2720   42.7729 N.4         1 MOL       0.2333
      2 CA         46.7039   26.6765   42.0501 C.3         1 MOL       0.0299
      3 C          45.8615   27.5113   42.9408 C.2         1 MOL       0.0853
      4 OT1        45.9054   27.3526   44.2817 O.co2       1 MOL      -0.5642
      5 OT2        45.3718   28.6879   42.4834 O.co2       1 MOL      -0.5642
      6 CB         45.9509   25.4324   41.4727 C.3         1 MOL       0.0201
      7 CG         45.2060   25.6843   40.2346 C.2         1 MOL       0.0355
      8 CD1        45.7339   26.1320   39.0992 C.2         1 MOL       0.1867
      9 CD2        43.9174   25.4464   39.9381 C.2         1 MOL       0.1229
     10 CE2        42.9127   24.8453   40.7801 C.3         1 MOL       0.0048
     11 OE1        46.9056   26.4046   38.8591 O.2         1 MOL      -0.4259
     12 NE1        44.7785   26.1832   38.2132 N.am        1 MOL      -0.1399
     13 OE2        43.6175   25.7824   38.6795 O.3         1 MOL      -0.1759
     14 H1         48.5674   25.8065   42.1178 H           1 MOL       0.2011
     15 H2         47.6983   25.6320   43.5356 H           1 MOL       0.2011
     16 H3         48.3881   27.1083   43.1562 H           1 MOL       0.2011
     17 H4         47.0473   27.3060   41.2264 H           1 MOL       0.1035
     18 H5         45.2853   25.0250   42.2355 H           1 MOL       0.0385
     19 H6         46.6810   24.6504   41.2554 H           1 MOL       0.0385
     20 H7         41.9679   24.7507   40.2435 H           1 MOL       0.0455
     21 H8         42.7424   25.4483   41.6727 H           1 MOL       0.0455
     22 H9         43.2292   23.8447   41.0687 H           1 MOL       0.0455
     23 H10        44.9156   26.4621   37.2918 H           1 MOL       0.2313
@<TRIPOS>BOND
     1     1     2   1
     2     2     3   1
     3     2     6   1
     4     3     4  ar
     5     3     5  ar
     6     6     7   1
     7     7     8   1
     8     7     9   2
     9     8    11   2
    10     8    12  am
    11     9    10   1
    12     9    13   1
    13    12    13   1
    14     1    14   1
    15     1    15   1
    16     1    16   1
    17     2    17   1
    18     6    18   1
    19     6    19   1
    20    10    20   1
    21    10    21   1
    22    10    22   1
    23    12    23   1
@<TRIPOS>SUBSTRUCTURE
     1  MOL      2

