@<TRIPOS>MOLECULE
1p1q_ligand_021
    23    23
SMALL
GAST_HUCK
****
This file was generated by PARSER (from files_GN.cpp)

@<TRIPOS>ATOM
      1 N          43.5432   29.8605   41.2476 N.4         1 MOL       0.2333
      2 CA         44.2897   28.6081   41.0293 C.3         1 MOL       0.0299
      3 C          44.2804   28.2903   39.5794 C.2         1 MOL       0.0853
      4 OT1        45.1647   27.4108   39.0675 O.co2       1 MOL      -0.5642
      5 OT2        43.3762   28.8452   38.7403 O.co2       1 MOL      -0.5642
      6 CB         43.6981   27.4604   41.9041 C.3         1 MOL       0.0201
      7 CG         44.6798   26.4326   42.2521 C.2         1 MOL       0.0355
      8 CD1        45.4931   26.4535   43.3085 C.2         1 MOL       0.1867
      9 CD2        44.9359   25.2666   41.6406 C.2         1 MOL       0.1229
     10 CE2        44.2779   24.7178   40.4749 C.3         1 MOL       0.0048
     11 OE1        45.5970   27.3147   44.1698 O.2         1 MOL      -0.4259
     12 NE1        46.1867   25.3479   43.2812 N.am        1 MOL      -0.1399
     13 OE2        45.8949   24.5722   42.2686 O.3         1 MOL      -0.1759
     14 H1         43.6231   30.1366   42.2308 H           1 MOL       0.2011
     15 H2         42.5552   29.7511   41.0074 H           1 MOL       0.2011
     16 H3         43.9413   30.5939   40.6620 H           1 MOL       0.2011
     17 H4         45.3135   28.8167   41.3205 H           1 MOL       0.1035
     18 H5         42.8386   27.0091   41.4099 H           1 MOL       0.0385
     19 H6         43.3151   27.8824   42.8424 H           1 MOL       0.0385
     20 H7         44.6872   23.7307   40.2382 H           1 MOL       0.0455
     21 H8         44.4179   25.3501   39.6124 H           1 MOL       0.0455
     22 H9         43.2071   24.6043   40.6622 H           1 MOL       0.0455
     23 H10        46.8372   25.1105   43.9566 H           1 MOL       0.2313
@<TRIPOS>BOND
     1     1     2   1
     2     2     3   1
     3     2     6   1
     4     3     4  ar
     5     3     5  ar
     6     6     7   1
     7     7     8   1
     8     7     9   2
     9     8    11   2
    10     8    12  am
    11     9    10   1
    12     9    13   1
    13    12    13   1
    14     1    14   1
    15     1    15   1
    16     1    16   1
    17     2    17   1
    18     6    18   1
    19     6    19   1
    20    10    20   1
    21    10    21   1
    22    10    22   1
    23    12    23   1
@<TRIPOS>SUBSTRUCTURE
     1  MOL      2

