@<TRIPOS>MOLECULE
1p1q_ligand_020
    23    23
SMALL
GAST_HUCK
****
This file was generated by PARSER (from files_GN.cpp)

@<TRIPOS>ATOM
      1 N          44.8170   23.1545   39.7156 N.4         1 MOL       0.2333
      2 CA         44.6886   24.6124   39.6088 C.3         1 MOL       0.0299
      3 C          45.1139   25.0127   38.2458 C.2         1 MOL       0.0853
      4 OT1        44.1960   25.1084   37.2598 O.co2       1 MOL      -0.5642
      5 OT2        46.3202   25.5826   38.0309 O.co2       1 MOL      -0.5642
      6 CB         45.4709   25.2958   40.7726 C.3         1 MOL       0.0201
      7 CG         45.2183   26.7133   41.0467 C.2         1 MOL       0.0355
      8 CD1        44.4661   27.5937   40.3912 C.2         1 MOL       0.1867
      9 CD2        45.6835   27.3902   42.1051 C.2         1 MOL       0.1229
     10 CE2        46.5186   26.8671   43.1672 C.3         1 MOL       0.0048
     11 OE1        43.8330   27.4586   39.3526 O.2         1 MOL      -0.4259
     12 NE1        44.5106   28.7146   41.0503 N.am        1 MOL      -0.1399
     13 OE2        45.2675   28.6636   42.1198 O.3         1 MOL      -0.1759
     14 H1         44.6526   22.8682   40.6801 H           1 MOL       0.2011
     15 H2         45.7502   22.8563   39.4352 H           1 MOL       0.2011
     16 H3         44.1225   22.7094   39.1158 H           1 MOL       0.2011
     17 H4         43.6251   24.8351   39.7371 H           1 MOL       0.1035
     18 H5         46.5471   25.1575   40.6181 H           1 MOL       0.0385
     19 H6         45.2053   24.7508   41.6830 H           1 MOL       0.0385
     20 H7         46.7024   27.6247   43.9281 H           1 MOL       0.0455
     21 H8         47.4789   26.5476   42.7590 H           1 MOL       0.0455
     22 H9         46.0284   26.0183   43.6468 H           1 MOL       0.0455
     23 H10        44.0300   29.5105   40.7696 H           1 MOL       0.2313
@<TRIPOS>BOND
     1     1     2   1
     2     2     3   1
     3     2     6   1
     4     3     4  ar
     5     3     5  ar
     6     6     7   1
     7     7     8   1
     8     7     9   2
     9     8    11   2
    10     8    12  am
    11     9    10   1
    12     9    13   1
    13    12    13   1
    14     1    14   1
    15     1    15   1
    16     1    16   1
    17     2    17   1
    18     6    18   1
    19     6    19   1
    20    10    20   1
    21    10    21   1
    22    10    22   1
    23    12    23   1
@<TRIPOS>SUBSTRUCTURE
     1  MOL      2

