@<TRIPOS>MOLECULE
1p1q_ligand_029
    23    23
SMALL
GAST_HUCK
****
This file was generated by PARSER (from files_GN.cpp)

@<TRIPOS>ATOM
      1 N          43.4684   27.6461   37.4219 N.4         1 MOL       0.2333
      2 CA         44.3570   27.8957   38.5633 C.3         1 MOL       0.0299
      3 C          45.7364   27.6851   38.0849 C.2         1 MOL       0.0853
      4 OT1        46.5138   28.7314   37.7243 O.co2       1 MOL      -0.5642
      5 OT2        46.2991   26.4548   38.1234 O.co2       1 MOL      -0.5642
      6 CB         43.9662   26.9996   39.7789 C.3         1 MOL       0.0201
      7 CG         44.6937   27.3384   40.9956 C.2         1 MOL       0.0355
      8 CD1        45.7096   26.6719   41.5306 C.2         1 MOL       0.1867
      9 CD2        44.4480   28.3475   41.8411 C.2         1 MOL       0.1229
     10 CE2        43.3898   29.3346   41.7444 C.3         1 MOL       0.0048
     11 OE1        46.2892   25.6852   41.1022 O.2         1 MOL      -0.4259
     12 NE1        46.0443   27.2969   42.6250 N.am        1 MOL      -0.1399
     13 OE2        45.2993   28.3461   42.8735 O.3         1 MOL      -0.1759
     14 H1         42.4970   27.8026   37.6879 H           1 MOL       0.2011
     15 H2         43.5786   26.6858   37.1009 H           1 MOL       0.2011
     16 H3         43.7041   28.2822   36.6577 H           1 MOL       0.2011
     17 H4         44.2295   28.9465   38.8218 H           1 MOL       0.1035
     18 H5         44.1134   25.9454   39.5191 H           1 MOL       0.0385
     19 H6         42.9038   27.1131   39.9850 H           1 MOL       0.0385
     20 H7         43.4259   30.0106   42.5978 H           1 MOL       0.0455
     21 H8         42.4132   28.8475   41.7371 H           1 MOL       0.0455
     22 H9         43.4955   29.9323   40.8393 H           1 MOL       0.0455
     23 H10        46.7872   27.0326   43.1892 H           1 MOL       0.2313
@<TRIPOS>BOND
     1     1     2   1
     2     2     3   1
     3     2     6   1
     4     3     4  ar
     5     3     5  ar
     6     6     7   1
     7     7     8   1
     8     7     9   2
     9     8    11   2
    10     8    12  am
    11     9    10   1
    12     9    13   1
    13    12    13   1
    14     1    14   1
    15     1    15   1
    16     1    16   1
    17     2    17   1
    18     6    18   1
    19     6    19   1
    20    10    20   1
    21    10    21   1
    22    10    22   1
    23    12    23   1
@<TRIPOS>SUBSTRUCTURE
     1  MOL      2

