@<TRIPOS>MOLECULE
1p1q_ligand_033
    23    23
SMALL
GAST_HUCK
****
This file was generated by PARSER (from files_GN.cpp)

@<TRIPOS>ATOM
      1 N          48.3465   26.1089   43.1203 N.4         1 MOL       0.2333
      2 CA         47.3005   25.0672   43.0073 C.3         1 MOL       0.0299
      3 C          47.7821   23.9842   42.1322 C.2         1 MOL       0.0853
      4 OT1        47.1089   22.8104   42.1028 O.co2       1 MOL      -0.5642
      5 OT2        48.5895   24.2581   41.0770 O.co2       1 MOL      -0.5642
      6 CB         45.9066   25.6090   42.5870 C.3         1 MOL       0.0201
      7 CG         45.8536   26.2311   41.2699 C.2         1 MOL       0.0355
      8 CD1        45.9795   27.5246   41.0279 C.2         1 MOL       0.1867
      9 CD2        45.6686   25.6707   40.0630 C.2         1 MOL       0.1229
     10 CE2        45.4099   24.2816   39.7626 C.3         1 MOL       0.0048
     11 OE1        46.0988   28.4391   41.8384 O.2         1 MOL      -0.4259
     12 NE1        45.9126   27.6849   39.7389 N.am        1 MOL      -0.1399
     13 OE2        45.7306   26.5665   39.0760 O.3         1 MOL      -0.1759
     14 H1         48.0108   26.9341   43.6269 H           1 MOL       0.2011
     15 H2         48.6733   26.3935   42.2045 H           1 MOL       0.2011
     16 H3         49.1409   25.7039   43.6275 H           1 MOL       0.2011
     17 H4         47.1966   24.6421   44.0073 H           1 MOL       0.1035
     18 H5         45.5585   26.3197   43.3360 H           1 MOL       0.0385
     19 H6         45.1996   24.7728   42.6148 H           1 MOL       0.0385
     20 H7         45.2882   24.1368   38.6923 H           1 MOL       0.0455
     21 H8         44.5105   23.9374   40.2682 H           1 MOL       0.0455
     22 H9         46.2409   23.6682   40.0611 H           1 MOL       0.0455
     23 H10        46.0044   28.5442   39.3065 H           1 MOL       0.2313
@<TRIPOS>BOND
     1     1     2   1
     2     2     3   1
     3     2     6   1
     4     3     4  ar
     5     3     5  ar
     6     6     7   1
     7     7     8   1
     8     7     9   2
     9     8    11   2
    10     8    12  am
    11     9    10   1
    12     9    13   1
    13    12    13   1
    14     1    14   1
    15     1    15   1
    16     1    16   1
    17     2    17   1
    18     6    18   1
    19     6    19   1
    20    10    20   1
    21    10    21   1
    22    10    22   1
    23    12    23   1
@<TRIPOS>SUBSTRUCTURE
     1  MOL      2

