@<TRIPOS>MOLECULE
1p1q_ligand_027
    23    23
SMALL
GAST_HUCK
****
This file was generated by PARSER (from files_GN.cpp)

@<TRIPOS>ATOM
      1 N          45.9234   28.0732   40.9823 N.4         1 MOL       0.2333
      2 CA         45.8754   26.6479   40.6320 C.3         1 MOL       0.0299
      3 C          45.1785   26.5169   39.3369 C.2         1 MOL       0.0853
      4 OT1        43.8346   26.6262   39.2690 O.co2       1 MOL      -0.5642
      5 OT2        45.8913   26.5068   38.1882 O.co2       1 MOL      -0.5642
      6 CB         45.2131   25.8220   41.7785 C.3         1 MOL       0.0201
      7 CG         46.1752   25.3501   42.7661 C.2         1 MOL       0.0355
      8 CD1        46.3273   25.7799   44.0144 C.2         1 MOL       0.1867
      9 CD2        47.0137   24.3144   42.6377 C.2         1 MOL       0.1229
     10 CE2        47.1844   23.4525   41.4802 C.3         1 MOL       0.0048
     11 OE1        45.7635   26.7018   44.5844 O.2         1 MOL      -0.4259
     12 NE1        47.2063   24.9938   44.5782 N.am        1 MOL      -0.1399
     13 OE2        47.6935   24.0846   43.7669 O.3         1 MOL      -0.1759
     14 H1         46.4330   28.2042   41.8627 H           1 MOL       0.2011
     15 H2         44.9707   28.4277   41.0807 H           1 MOL       0.2011
     16 H3         46.4039   28.5864   40.2370 H           1 MOL       0.2011
     17 H4         46.9076   26.3328   40.4841 H           1 MOL       0.1035
     18 H5         44.6950   24.9497   41.3747 H           1 MOL       0.0385
     19 H6         44.4421   26.4332   42.2550 H           1 MOL       0.0385
     20 H7         47.9394   22.6894   41.6807 H           1 MOL       0.0455
     21 H8         47.5088   24.0233   40.6096 H           1 MOL       0.0455
     22 H9         46.2469   22.9462   41.2414 H           1 MOL       0.0455
     23 H10        47.4420   25.0388   45.5200 H           1 MOL       0.2313
@<TRIPOS>BOND
     1     1     2   1
     2     2     3   1
     3     2     6   1
     4     3     4  ar
     5     3     5  ar
     6     6     7   1
     7     7     8   1
     8     7     9   2
     9     8    11   2
    10     8    12  am
    11     9    10   1
    12     9    13   1
    13    12    13   1
    14     1    14   1
    15     1    15   1
    16     1    16   1
    17     2    17   1
    18     6    18   1
    19     6    19   1
    20    10    20   1
    21    10    21   1
    22    10    22   1
    23    12    23   1
@<TRIPOS>SUBSTRUCTURE
     1  MOL      2

