@<TRIPOS>MOLECULE
1p1q_ligand_012
    23    23
SMALL
GAST_HUCK
****
This file was generated by PARSER (from files_GN.cpp)

@<TRIPOS>ATOM
      1 N          45.6877   24.3474   40.4617 N.4         1 MOL       0.2333
      2 CA         44.9403   25.4597   41.0604 C.3         1 MOL       0.0299
      3 C          43.5223   25.3600   40.6395 C.2         1 MOL       0.0853
      4 OT1        43.1865   25.2465   39.3367 O.co2       1 MOL      -0.5642
      5 OT2        42.5267   25.4856   41.5456 O.co2       1 MOL      -0.5642
      6 CB         45.6416   26.8404   40.8010 C.3         1 MOL       0.0201
      7 CG         45.0032   27.7194   39.8257 C.2         1 MOL       0.0355
      8 CD1        45.1967   27.7098   38.5167 C.2         1 MOL       0.1867
      9 CD2        44.0038   28.5892   40.0216 C.2         1 MOL       0.1229
     10 CE2        43.3591   28.9113   41.2797 C.3         1 MOL       0.0048
     11 OE1        45.9748   27.0167   37.8805 O.2         1 MOL      -0.4259
     12 NE1        44.3311   28.5351   37.9892 N.am        1 MOL      -0.1399
     13 OE2        43.5611   29.1201   38.8731 O.3         1 MOL      -0.1759
     14 H1         46.6556   24.3664   40.7983 H           1 MOL       0.2011
     15 H2         45.6811   24.4235   39.4403 H           1 MOL       0.2011
     16 H3         45.2588   23.4615   40.7364 H           1 MOL       0.2011
     17 H4         44.9811   25.2834   42.1397 H           1 MOL       0.1035
     18 H5         46.6784   26.6761   40.4979 H           1 MOL       0.0385
     19 H6         45.7064   27.3835   41.7486 H           1 MOL       0.0385
     20 H7         42.5863   29.6620   41.1248 H           1 MOL       0.0455
     21 H8         44.0792   29.3067   42.0022 H           1 MOL       0.0455
     22 H9         42.8930   28.0163   41.6950 H           1 MOL       0.0455
     23 H10        44.2419   28.6881   37.0336 H           1 MOL       0.2313
@<TRIPOS>BOND
     1     1     2   1
     2     2     3   1
     3     2     6   1
     4     3     4  ar
     5     3     5  ar
     6     6     7   1
     7     7     8   1
     8     7     9   2
     9     8    11   2
    10     8    12  am
    11     9    10   1
    12     9    13   1
    13    12    13   1
    14     1    14   1
    15     1    15   1
    16     1    16   1
    17     2    17   1
    18     6    18   1
    19     6    19   1
    20    10    20   1
    21    10    21   1
    22    10    22   1
    23    12    23   1
@<TRIPOS>SUBSTRUCTURE
     1  MOL      2

