@<TRIPOS>MOLECULE
1p1q_ligand_032
    23    23
SMALL
GAST_HUCK
****
This file was generated by PARSER (from files_GN.cpp)

@<TRIPOS>ATOM
      1 N          48.2763   25.3715   42.7973 N.4         1 MOL       0.2333
      2 CA         46.9572   25.0760   42.2090 C.3         1 MOL       0.0299
      3 C          47.1438   23.9870   41.2211 C.2         1 MOL       0.0853
      4 OT1        46.9355   22.6997   41.5891 O.co2       1 MOL      -0.5642
      5 OT2        47.5743   24.2341   39.9622 O.co2       1 MOL      -0.5642
      6 CB         46.2835   26.3579   41.6158 C.3         1 MOL       0.0201
      7 CG         44.8357   26.2799   41.3736 C.2         1 MOL       0.0355
      8 CD1        44.1299   25.2568   40.9056 C.2         1 MOL       0.1867
      9 CD2        43.9265   27.2514   41.5412 C.2         1 MOL       0.1229
     10 CE2        44.1635   28.6276   41.9092 C.3         1 MOL       0.0048
     11 OE1        44.4923   24.1354   40.5891 O.2         1 MOL      -0.4259
     12 NE1        42.8788   25.6115   40.8800 N.am        1 MOL      -0.1399
     13 OE2        42.6829   26.8456   41.2648 O.3         1 MOL      -0.1759
     14 H1         48.1737   26.0832   43.5217 H           1 MOL       0.2011
     15 H2         48.9165   25.7161   42.0813 H           1 MOL       0.2011
     16 H3         48.6593   24.5190   43.2150 H           1 MOL       0.2011
     17 H4         46.3399   24.7110   43.0367 H           1 MOL       0.1035
     18 H5         46.7755   26.6452   40.6834 H           1 MOL       0.0385
     19 H6         46.4754   27.1713   42.3202 H           1 MOL       0.0385
     20 H7         43.2238   29.1847   41.9354 H           1 MOL       0.0455
     21 H8         44.8221   29.0920   41.1734 H           1 MOL       0.0455
     22 H9         44.6228   28.6789   42.8965 H           1 MOL       0.0455
     23 H10        42.1661   25.0062   40.6270 H           1 MOL       0.2313
@<TRIPOS>BOND
     1     1     2   1
     2     2     3   1
     3     2     6   1
     4     3     4  ar
     5     3     5  ar
     6     6     7   1
     7     7     8   1
     8     7     9   2
     9     8    11   2
    10     8    12  am
    11     9    10   1
    12     9    13   1
    13    12    13   1
    14     1    14   1
    15     1    15   1
    16     1    16   1
    17     2    17   1
    18     6    18   1
    19     6    19   1
    20    10    20   1
    21    10    21   1
    22    10    22   1
    23    12    23   1
@<TRIPOS>SUBSTRUCTURE
     1  MOL      2

