@<TRIPOS>MOLECULE
1p1q_ligand_030
    23    23
SMALL
GAST_HUCK
****
This file was generated by PARSER (from files_GN.cpp)

@<TRIPOS>ATOM
      1 N          45.1530   27.6751   40.3624 N.4         1 MOL       0.2333
      2 CA         45.4922   27.0626   41.6590 C.3         1 MOL       0.0299
      3 C          45.3158   28.0208   42.7717 C.2         1 MOL       0.0853
      4 OT1        44.6061   29.1556   42.6044 O.co2       1 MOL      -0.5642
      5 OT2        45.6237   27.6516   44.0369 O.co2       1 MOL      -0.5642
      6 CB         46.9504   26.5035   41.5812 C.3         1 MOL       0.0201
      7 CG         47.1509   25.3130   42.3957 C.2         1 MOL       0.0355
      8 CD1        47.5449   25.2401   43.6623 C.2         1 MOL       0.1867
      9 CD2        46.9656   24.0370   42.0161 C.2         1 MOL       0.1229
     10 CE2        46.5644   23.5575   40.7095 C.3         1 MOL       0.0048
     11 OE1        47.8295   26.1433   44.4375 O.2         1 MOL      -0.4259
     12 NE1        47.5352   23.9803   43.9958 N.am        1 MOL      -0.1399
     13 OE2        47.2126   23.1762   43.0091 O.3         1 MOL      -0.1759
     14 H1         45.2065   26.9625   39.6342 H           1 MOL       0.2011
     15 H2         45.8105   28.4237   40.1419 H           1 MOL       0.2011
     16 H3         44.2032   28.0480   40.3895 H           1 MOL       0.2011
     17 H4         44.7771   26.2418   41.8156 H           1 MOL       0.1035
     18 H5         47.6677   27.2798   41.8648 H           1 MOL       0.0385
     19 H6         47.1806   26.2368   40.5448 H           1 MOL       0.0385
     20 H7         46.5386   22.4659   40.7030 H           1 MOL       0.0455
     21 H8         47.2769   23.8857   39.9503 H           1 MOL       0.0455
     22 H9         45.5703   23.9273   40.4521 H           1 MOL       0.0455
     23 H10        47.7386   23.6605   44.8882 H           1 MOL       0.2313
@<TRIPOS>BOND
     1     1     2   1
     2     2     3   1
     3     2     6   1
     4     3     4  ar
     5     3     5  ar
     6     6     7   1
     7     7     8   1
     8     7     9   2
     9     8    11   2
    10     8    12  am
    11     9    10   1
    12     9    13   1
    13    12    13   1
    14     1    14   1
    15     1    15   1
    16     1    16   1
    17     2    17   1
    18     6    18   1
    19     6    19   1
    20    10    20   1
    21    10    21   1
    22    10    22   1
    23    12    23   1
@<TRIPOS>SUBSTRUCTURE
     1  MOL      2

