@<TRIPOS>MOLECULE
1p1q_ligand_034
    23    23
SMALL
GAST_HUCK
****
This file was generated by PARSER (from files_GN.cpp)

@<TRIPOS>ATOM
      1 N          48.1281   26.3849   42.9569 N.4         1 MOL       0.2333
      2 CA         47.0274   26.1203   42.0213 C.3         1 MOL       0.0299
      3 C          46.8231   27.2958   41.1531 C.2         1 MOL       0.0853
      4 OT1        46.4152   28.4792   41.6752 O.co2       1 MOL      -0.5642
      5 OT2        46.8109   27.1207   39.8126 O.co2       1 MOL      -0.5642
      6 CB         45.7363   25.6985   42.7745 C.3         1 MOL       0.0201
      7 CG         44.5946   25.4633   41.8885 C.2         1 MOL       0.0355
      8 CD1        44.5167   24.5258   40.9567 C.2         1 MOL       0.1867
      9 CD2        43.4253   26.1144   41.8302 C.2         1 MOL       0.1229
     10 CE2        43.0101   27.2230   42.6648 C.3         1 MOL       0.0048
     11 OE1        45.3238   23.6448   40.7076 O.2         1 MOL      -0.4259
     12 NE1        43.3511   24.6421   40.3869 N.am        1 MOL      -0.1399
     13 OE2        42.6227   25.6184   40.8803 O.3         1 MOL      -0.1759
     14 H1         48.2473   25.5847   43.5817 H           1 MOL       0.2011
     15 H2         47.9506   27.2359   43.4908 H           1 MOL       0.2011
     16 H3         48.9788   26.5184   42.4114 H           1 MOL       0.2011
     17 H4         47.3582   25.2791   41.4055 H           1 MOL       0.1035
     18 H5         45.5013   26.4577   43.5251 H           1 MOL       0.0385
     19 H6         45.9374   24.7720   43.3142 H           1 MOL       0.0385
     20 H7         42.0152   27.5701   42.3800 H           1 MOL       0.0455
     21 H8         43.7099   28.0557   42.5576 H           1 MOL       0.0455
     22 H9         42.9836   26.9070   43.7114 H           1 MOL       0.0455
     23 H10        43.0443   24.0418   39.6868 H           1 MOL       0.2313
@<TRIPOS>BOND
     1     1     2   1
     2     2     3   1
     3     2     6   1
     4     3     4  ar
     5     3     5  ar
     6     6     7   1
     7     7     8   1
     8     7     9   2
     9     8    11   2
    10     8    12  am
    11     9    10   1
    12     9    13   1
    13    12    13   1
    14     1    14   1
    15     1    15   1
    16     1    16   1
    17     2    17   1
    18     6    18   1
    19     6    19   1
    20    10    20   1
    21    10    21   1
    22    10    22   1
    23    12    23   1
@<TRIPOS>SUBSTRUCTURE
     1  MOL      2

