@<TRIPOS>MOLECULE
1p1q_ligand_023
    23    23
SMALL
GAST_HUCK
****
This file was generated by PARSER (from files_GN.cpp)

@<TRIPOS>ATOM
      1 N          46.7939   24.9324   42.9922 N.4         1 MOL       0.2333
      2 CA         46.8689   26.1411   42.1488 C.3         1 MOL       0.0299
      3 C          45.9135   27.1597   42.6291 C.2         1 MOL       0.0853
      4 OT1        44.6847   26.7906   43.0708 O.co2       1 MOL      -0.5642
      5 OT2        46.0771   28.4597   42.2816 O.co2       1 MOL      -0.5642
      6 CB         46.7069   25.8313   40.6290 C.3         1 MOL       0.0201
      7 CG         45.4059   25.2889   40.2454 C.2         1 MOL       0.0355
      8 CD1        45.0073   24.0394   40.4346 C.2         1 MOL       0.1867
      9 CD2        44.3782   25.8885   39.6284 C.2         1 MOL       0.1229
     10 CE2        44.3339   27.2572   39.1547 C.3         1 MOL       0.0048
     11 OE1        45.6828   23.0910   40.8081 O.2         1 MOL      -0.4259
     12 NE1        43.7910   23.9409   39.9734 N.am        1 MOL      -0.1399
     13 OE2        43.3315   25.0641   39.4651 O.3         1 MOL      -0.1759
     14 H1         47.5638   24.2921   42.7905 H           1 MOL       0.2011
     15 H2         45.9073   24.4579   42.8210 H           1 MOL       0.2011
     16 H3         46.8421   25.1997   43.9780 H           1 MOL       0.2011
     17 H4         47.8722   26.5496   42.2994 H           1 MOL       0.1035
     18 H5         47.4743   25.1174   40.3317 H           1 MOL       0.0385
     19 H6         46.9068   26.7477   40.0718 H           1 MOL       0.0385
     20 H7         43.3720   27.4709   38.6845 H           1 MOL       0.0455
     21 H8         45.1183   27.4242   38.4153 H           1 MOL       0.0455
     22 H9         44.4733   27.9470   39.9871 H           1 MOL       0.0455
     23 H10        43.3095   23.0965   39.9374 H           1 MOL       0.2313
@<TRIPOS>BOND
     1     1     2   1
     2     2     3   1
     3     2     6   1
     4     3     4  ar
     5     3     5  ar
     6     6     7   1
     7     7     8   1
     8     7     9   2
     9     8    11   2
    10     8    12  am
    11     9    10   1
    12     9    13   1
    13    12    13   1
    14     1    14   1
    15     1    15   1
    16     1    16   1
    17     2    17   1
    18     6    18   1
    19     6    19   1
    20    10    20   1
    21    10    21   1
    22    10    22   1
    23    12    23   1
@<TRIPOS>SUBSTRUCTURE
     1  MOL      2

