@<TRIPOS>MOLECULE
1p1q_ligand_015
    23    23
SMALL
GAST_HUCK
****
This file was generated by PARSER (from files_GN.cpp)

@<TRIPOS>ATOM
      1 N          46.6698   27.3231   39.7517 N.4         1 MOL       0.2333
      2 CA         45.2531   27.0022   39.9722 C.3         1 MOL       0.0299
      3 C          44.5276   28.2715   40.2122 C.2         1 MOL       0.0853
      4 OT1        43.6076   28.7379   39.3365 O.co2       1 MOL      -0.5642
      5 OT2        44.8927   29.0718   41.2412 O.co2       1 MOL      -0.5642
      6 CB         45.0862   25.9149   41.0851 C.3         1 MOL       0.0201
      7 CG         44.9101   26.3927   42.4598 C.2         1 MOL       0.0355
      8 CD1        43.7426   26.6925   43.0139 C.2         1 MOL       0.1867
      9 CD2        45.8168   26.6408   43.4149 C.2         1 MOL       0.1229
     10 CE2        47.2532   26.4762   43.3416 C.3         1 MOL       0.0048
     11 OE1        42.6294   26.5970   42.5199 O.2         1 MOL      -0.4259
     12 NE1        43.9760   27.0866   44.2343 N.am        1 MOL      -0.1399
     13 OE2        45.2500   27.0886   44.5457 O.3         1 MOL      -0.1759
     14 H1         47.1496   26.5161   39.3490 H           1 MOL       0.2011
     15 H2         47.1037   27.5674   40.6401 H           1 MOL       0.2011
     16 H3         46.7503   28.1270   39.1271 H           1 MOL       0.2011
     17 H4         44.8903   26.5772   39.0307 H           1 MOL       0.1035
     18 H5         45.9400   25.2327   41.0525 H           1 MOL       0.0385
     19 H6         44.2188   25.3002   40.8237 H           1 MOL       0.0385
     20 H7         47.7147   26.7398   44.2949 H           1 MOL       0.0455
     21 H8         47.6738   27.1273   42.5772 H           1 MOL       0.0455
     22 H9         47.5043   25.4395   43.1140 H           1 MOL       0.0455
     23 H10        43.2751   27.3469   44.8552 H           1 MOL       0.2313
@<TRIPOS>BOND
     1     1     2   1
     2     2     3   1
     3     2     6   1
     4     3     4  ar
     5     3     5  ar
     6     6     7   1
     7     7     8   1
     8     7     9   2
     9     8    11   2
    10     8    12  am
    11     9    10   1
    12     9    13   1
    13    12    13   1
    14     1    14   1
    15     1    15   1
    16     1    16   1
    17     2    17   1
    18     6    18   1
    19     6    19   1
    20    10    20   1
    21    10    21   1
    22    10    22   1
    23    12    23   1
@<TRIPOS>SUBSTRUCTURE
     1  MOL      2

