@<TRIPOS>MOLECULE
1p1q_ligand_005
    23    23
SMALL
GAST_HUCK
****
This file was generated by PARSER (from files_GN.cpp)

@<TRIPOS>ATOM
      1 N          46.5393   27.5880   41.1490 N.4         1 MOL       0.2333
      2 CA         45.3043   27.5878   41.9584 C.3         1 MOL       0.0299
      3 C          45.5793   26.7714   43.1603 C.2         1 MOL       0.0853
      4 OT1        45.7871   25.4369   43.0500 O.co2       1 MOL      -0.5642
      5 OT2        45.7144   27.3341   44.3902 O.co2       1 MOL      -0.5642
      6 CB         44.0172   27.1090   41.1996 C.3         1 MOL       0.0201
      7 CG         44.0910   27.1425   39.7380 C.2         1 MOL       0.0355
      8 CD1        43.8160   28.1693   38.9502 C.2         1 MOL       0.1867
      9 CD2        44.4105   26.1450   38.9034 C.2         1 MOL       0.1229
     10 CE2        44.7615   24.7881   39.2752 C.3         1 MOL       0.0048
     11 OE1        43.4522   29.2938   39.2747 O.2         1 MOL      -0.4259
     12 NE1        44.0048   27.7835   37.7175 N.am        1 MOL      -0.1399
     13 OE2        44.3941   26.5319   37.6225 O.3         1 MOL      -0.1759
     14 H1         46.4721   28.2897   40.3992 H           1 MOL       0.2011
     15 H2         46.6873   26.6607   40.7341 H           1 MOL       0.2011
     16 H3         47.3468   27.8199   41.7401 H           1 MOL       0.2011
     17 H4         45.1551   28.6236   42.2775 H           1 MOL       0.1035
     18 H5         43.1791   27.7287   41.5312 H           1 MOL       0.0385
     19 H6         43.7626   26.0926   41.5025 H           1 MOL       0.0385
     20 H7         44.9818   24.1939   38.3881 H           1 MOL       0.0455
     21 H8         43.9240   24.3184   39.7988 H           1 MOL       0.0455
     22 H9         45.6400   24.7829   39.9260 H           1 MOL       0.0455
     23 H10        43.8800   28.3625   36.9461 H           1 MOL       0.2313
@<TRIPOS>BOND
     1     1     2   1
     2     2     3   1
     3     2     6   1
     4     3     4  ar
     5     3     5  ar
     6     6     7   1
     7     7     8   1
     8     7     9   2
     9     8    11   2
    10     8    12  am
    11     9    10   1
    12     9    13   1
    13    12    13   1
    14     1    14   1
    15     1    15   1
    16     1    16   1
    17     2    17   1
    18     6    18   1
    19     6    19   1
    20    10    20   1
    21    10    21   1
    22    10    22   1
    23    12    23   1
@<TRIPOS>SUBSTRUCTURE
     1  MOL      2

