@<TRIPOS>MOLECULE
1p1q_ligand_010
    23    23
SMALL
GAST_HUCK
****
This file was generated by PARSER (from files_GN.cpp)

@<TRIPOS>ATOM
      1 N          44.0307   28.3776   38.1918 N.4         1 MOL       0.2333
      2 CA         45.1539   27.4453   38.3991 C.3         1 MOL       0.0299
      3 C          44.9386   26.1911   37.6524 C.2         1 MOL       0.0853
      4 OT1        46.0135   25.4559   37.2830 O.co2       1 MOL      -0.5642
      5 OT2        43.7327   25.5699   37.6605 O.co2       1 MOL      -0.5642
      6 CB         45.4734   27.2029   39.9127 C.3         1 MOL       0.0201
      7 CG         44.3171   27.0194   40.7947 C.2         1 MOL       0.0355
      8 CD1        43.8293   27.9253   41.6271 C.2         1 MOL       0.1867
      9 CD2        43.5385   25.9392   40.9732 C.2         1 MOL       0.1229
     10 CE2        43.7240   24.6187   40.4076 C.3         1 MOL       0.0048
     11 OE1        44.3049   29.0165   41.9162 O.2         1 MOL      -0.4259
     12 NE1        42.7822   27.4047   42.2121 N.am        1 MOL      -0.1399
     13 OE2        42.5433   26.1712   41.8349 O.3         1 MOL      -0.1759
     14 H1         44.1811   29.2189   38.7480 H           1 MOL       0.2011
     15 H2         43.1608   27.9314   38.4801 H           1 MOL       0.2011
     16 H3         43.9696   28.6368   37.1999 H           1 MOL       0.2011
     17 H4         46.0295   27.9277   37.9466 H           1 MOL       0.1035
     18 H5         46.0429   28.0693   40.2585 H           1 MOL       0.0385
     19 H6         46.1503   26.3503   40.0146 H           1 MOL       0.0385
     20 H7         42.8872   23.9702   40.6811 H           1 MOL       0.0455
     21 H8         44.6436   24.1733   40.7966 H           1 MOL       0.0455
     22 H9         43.7687   24.6684   39.3114 H           1 MOL       0.0455
     23 H10        42.2482   27.8626   42.8897 H           1 MOL       0.2313
@<TRIPOS>BOND
     1     1     2   1
     2     2     3   1
     3     2     6   1
     4     3     4  ar
     5     3     5  ar
     6     6     7   1
     7     7     8   1
     8     7     9   2
     9     8    11   2
    10     8    12  am
    11     9    10   1
    12     9    13   1
    13    12    13   1
    14     1    14   1
    15     1    15   1
    16     1    16   1
    17     2    17   1
    18     6    18   1
    19     6    19   1
    20    10    20   1
    21    10    21   1
    22    10    22   1
    23    12    23   1
@<TRIPOS>SUBSTRUCTURE
     1  MOL      2

