@<TRIPOS>MOLECULE
1p1q_ligand_016
    23    23
SMALL
GAST_HUCK
****
This file was generated by PARSER (from files_GN.cpp)

@<TRIPOS>ATOM
      1 N          43.3030   26.4234   41.6032 N.4         1 MOL       0.2333
      2 CA         44.1378   27.6068   41.9054 C.3         1 MOL       0.0299
      3 C          43.3266   28.8377   42.0069 C.2         1 MOL       0.0853
      4 OT1        43.9298   30.0524   42.0682 O.co2       1 MOL      -0.5642
      5 OT2        41.9877   28.7962   42.1759 O.co2       1 MOL      -0.5642
      6 CB         45.3173   27.7099   40.8921 C.3         1 MOL       0.0201
      7 CG         44.9486   27.6000   39.4790 C.2         1 MOL       0.0355
      8 CD1        44.1337   28.3915   38.7905 C.2         1 MOL       0.1867
      9 CD2        45.3264   26.6567   38.6033 C.2         1 MOL       0.1229
     10 CE2        46.1941   25.5240   38.8584 C.3         1 MOL       0.0048
     11 OE1        43.5969   29.4320   39.1445 O.2         1 MOL      -0.4259
     12 NE1        44.0611   27.9159   37.5791 N.am        1 MOL      -0.1399
     13 OE2        44.7667   26.8249   37.4016 O.3         1 MOL      -0.1759
     14 H1         43.8884   25.5814   41.6049 H           1 MOL       0.2011
     15 H2         42.8750   26.5300   40.6812 H           1 MOL       0.2011
     16 H3         42.5641   26.3260   42.3042 H           1 MOL       0.2011
     17 H4         44.5581   27.4409   42.8984 H           1 MOL       0.1035
     18 H5         46.0239   26.9169   41.1536 H           1 MOL       0.0385
     19 H6         45.8551   28.6499   41.0452 H           1 MOL       0.0385
     20 H7         46.2993   24.9216   37.9549 H           1 MOL       0.0455
     21 H8         45.7718   24.8986   39.6483 H           1 MOL       0.0455
     22 H9         47.1850   25.8689   39.1572 H           1 MOL       0.0455
     23 H10        43.6044   28.3726   36.8555 H           1 MOL       0.2313
@<TRIPOS>BOND
     1     1     2   1
     2     2     3   1
     3     2     6   1
     4     3     4  ar
     5     3     5  ar
     6     6     7   1
     7     7     8   1
     8     7     9   2
     9     8    11   2
    10     8    12  am
    11     9    10   1
    12     9    13   1
    13    12    13   1
    14     1    14   1
    15     1    15   1
    16     1    16   1
    17     2    17   1
    18     6    18   1
    19     6    19   1
    20    10    20   1
    21    10    21   1
    22    10    22   1
    23    12    23   1
@<TRIPOS>SUBSTRUCTURE
     1  MOL      2

