@<TRIPOS>MOLECULE
1p1q_ligand_014
    23    23
SMALL
GAST_HUCK
****
This file was generated by PARSER (from files_GN.cpp)

@<TRIPOS>ATOM
      1 N          45.5048   27.8007   38.6546 N.4         1 MOL       0.2333
      2 CA         45.6472   26.3920   39.0578 C.3         1 MOL       0.0299
      3 C          44.8463   25.5839   38.1157 C.2         1 MOL       0.0853
      4 OT1        45.4555   24.9423   37.0874 O.co2       1 MOL      -0.5642
      5 OT2        43.4926   25.6137   38.1536 O.co2       1 MOL      -0.5642
      6 CB         45.2217   26.1793   40.5435 C.3         1 MOL       0.0201
      7 CG         46.3330   26.2799   41.4813 C.2         1 MOL       0.0355
      8 CD1        46.6574   27.3240   42.2279 C.2         1 MOL       0.1867
      9 CD2        47.2532   25.3508   41.7651 C.2         1 MOL       0.1229
     10 CE2        47.3366   24.0147   41.2159 C.3         1 MOL       0.0048
     11 OE1        46.1309   28.4289   42.2586 O.2         1 MOL      -0.4259
     12 NE1        47.7299   26.9989   42.8974 N.am        1 MOL      -0.1399
     13 OE2        48.1623   25.7884   42.6425 O.3         1 MOL      -0.1759
     14 H1         46.1211   28.3911   39.2141 H           1 MOL       0.2011
     15 H2         44.5364   28.0986   38.7840 H           1 MOL       0.2011
     16 H3         45.7537   27.9002   37.6688 H           1 MOL       0.2011
     17 H4         46.6945   26.1287   38.9244 H           1 MOL       0.1035
     18 H5         44.7610   25.1964   40.6740 H           1 MOL       0.0385
     19 H6         44.4457   26.9085   40.7959 H           1 MOL       0.0385
     20 H7         48.2059   23.4942   41.6222 H           1 MOL       0.0455
     21 H8         47.4326   24.0532   40.1304 H           1 MOL       0.0455
     22 H9         46.4422   23.4474   41.4790 H           1 MOL       0.0455
     23 H10        48.1875   27.6173   43.4865 H           1 MOL       0.2313
@<TRIPOS>BOND
     1     1     2   1
     2     2     3   1
     3     2     6   1
     4     3     4  ar
     5     3     5  ar
     6     6     7   1
     7     7     8   1
     8     7     9   2
     9     8    11   2
    10     8    12  am
    11     9    10   1
    12     9    13   1
    13    12    13   1
    14     1    14   1
    15     1    15   1
    16     1    16   1
    17     2    17   1
    18     6    18   1
    19     6    19   1
    20    10    20   1
    21    10    21   1
    22    10    22   1
    23    12    23   1
@<TRIPOS>SUBSTRUCTURE
     1  MOL      2

