@<TRIPOS>MOLECULE
1p1q_ligand_013
    23    23
SMALL
GAST_HUCK
****
This file was generated by PARSER (from files_GN.cpp)

@<TRIPOS>ATOM
      1 N          46.8128   27.4759   41.1645 N.4         1 MOL       0.2333
      2 CA         45.7576   27.8730   42.1081 C.3         1 MOL       0.0299
      3 C          45.6548   26.8883   43.2069 C.2         1 MOL       0.0853
      4 OT1        45.5952   25.5610   42.9546 O.co2       1 MOL      -0.5642
      5 OT2        45.7361   27.2903   44.4958 O.co2       1 MOL      -0.5642
      6 CB         44.4093   28.1593   41.3848 C.3         1 MOL       0.0201
      7 CG         43.8423   27.0245   40.6592 C.2         1 MOL       0.0355
      8 CD1        43.0813   26.0745   41.1803 C.2         1 MOL       0.1867
      9 CD2        43.9880   26.6859   39.3719 C.2         1 MOL       0.1229
     10 CE2        44.7188   27.4076   38.3513 C.3         1 MOL       0.0048
     11 OE1        42.6378   26.0049   42.3165 O.2         1 MOL      -0.4259
     12 NE1        42.8339   25.2099   40.2370 N.am        1 MOL      -0.1399
     13 OE2        43.3573   25.5390   39.0801 O.3         1 MOL      -0.1759
     14 H1         46.9454   28.2186   40.4712 H           1 MOL       0.2011
     15 H2         46.5461   26.6103   40.6894 H           1 MOL       0.2011
     16 H3         47.6860   27.3251   41.6724 H           1 MOL       0.2011
     17 H4         46.0904   28.8148   42.5467 H           1 MOL       0.1035
     18 H5         44.5647   28.9898   40.6920 H           1 MOL       0.0385
     19 H6         43.6834   28.5177   42.1215 H           1 MOL       0.0385
     20 H7         44.6350   26.8950   37.3917 H           1 MOL       0.0455
     21 H8         45.7755   27.4712   38.6108 H           1 MOL       0.0455
     22 H9         44.3147   28.4153   38.2390 H           1 MOL       0.0455
     23 H10        42.2913   24.4175   40.3698 H           1 MOL       0.2313
@<TRIPOS>BOND
     1     1     2   1
     2     2     3   1
     3     2     6   1
     4     3     4  ar
     5     3     5  ar
     6     6     7   1
     7     7     8   1
     8     7     9   2
     9     8    11   2
    10     8    12  am
    11     9    10   1
    12     9    13   1
    13    12    13   1
    14     1    14   1
    15     1    15   1
    16     1    16   1
    17     2    17   1
    18     6    18   1
    19     6    19   1
    20    10    20   1
    21    10    21   1
    22    10    22   1
    23    12    23   1
@<TRIPOS>SUBSTRUCTURE
     1  MOL      2

