@<TRIPOS>MOLECULE
1ps3_ligand_000
    28    29
SMALL
GAST_HUCK
****
This file was generated by PARSER (from files_GN.cpp)

@<TRIPOS>ATOM
      1 C4         25.1675   65.4749   11.0409 C.3         1 KIF       0.1090
      2 O4         24.1952   64.9199   11.9288 O.3         1 KIF      -0.3868
      3 C3         25.4029   64.4567    9.8809 C.3         1 KIF       0.1133
      4 O3         26.5630   64.7927    9.1184 O.3         1 KIF      -0.3864
      5 C2         24.1692   64.3774    8.9347 C.3         1 KIF       0.1280
      6 O2         24.4470   63.5447    7.8040 O.3         1 KIF      -0.3847
      7 C1         23.7690   65.7996    8.4634 C.3         1 KIF       0.1599
      8 N9         22.4667   65.8707    7.9139 N.am        1 KIF      -0.2491
      9 C8         21.7220   66.7194    8.5744 C.2         1 KIF       0.2867
     10 O8         20.5943   67.0436    8.2400 O.2         1 KIF      -0.3583
     11 C7         22.4252   67.2259    9.5800 C.2         1 KIF       0.2894
     12 O7         21.9801   68.0018   10.4118 O.2         1 KIF      -0.3581
     13 N          23.6404   66.7041    9.5686 N.am        1 KIF      -0.2273
     14 C5         24.6857   66.8792   10.5488 C.3         1 KIF       0.0996
     15 C6         25.8250   67.7868    9.9991 C.3         1 KIF       0.0701
     16 O6         25.4187   69.1538    9.9805 O.3         1 KIF      -0.3926
     17 H1         26.0907   65.5743   11.6168 H           1 KIF       0.0644
     18 H2         24.2253   65.4849   12.7307 H           1 KIF       0.2100
     19 H3         25.5834   63.4679   10.3135 H           1 KIF       0.0647
     20 H4         27.0481   65.4796    9.6258 H           1 KIF       0.2100
     21 H5         23.3379   63.9265    9.4835 H           1 KIF       0.0665
     22 H6         23.6489   63.6042    7.2316 H           1 KIF       0.2101
     23 H7         24.4895   66.1744    7.7327 H           1 KIF       0.0861
     24 H8         22.1819   65.3838    7.1263 H           1 KIF       0.1890
     25 H9         24.2900   67.3978   11.4295 H           1 KIF       0.0610
     26 H10        26.1171   67.4950    8.9899 H           1 KIF       0.0581
     27 H11        26.7061   67.7148   10.6383 H           1 KIF       0.0581
     28 H12        24.6202   69.1908    9.4097 H           1 KIF       0.2095
@<TRIPOS>BOND
     1     1     2   1
     2     1     3   1
     3     1    14   1
     4     3     4   1
     5     3     5   1
     6     5     6   1
     7     5     7   1
     8     7     8   1
     9     7    13   1
    10     8     9  am
    11     9    10   2
    12     9    11   1
    13    11    12   2
    14    11    13  am
    15    13    14   1
    16    14    15   1
    17    15    16   1
    18     1    17   1
    19     2    18   1
    20     3    19   1
    21     4    20   1
    22     5    21   1
    23     6    22   1
    24     7    23   1
    25     8    24   1
    26    14    25   1
    27    15    26   1
    28    15    27   1
    29    16    28   1
@<TRIPOS>SUBSTRUCTURE
     1  KIF      1

