@<TRIPOS>MOLECULE
1ps3_ligand_016
    28    29
SMALL
GAST_HUCK
****
This file was generated by PARSER (from files_GN.cpp)

@<TRIPOS>ATOM
      1 C4         28.2803   66.9943    6.3609 C.3         1 KIF       0.1090
      2 O4         28.7001   68.3537    6.2534 O.3         1 KIF      -0.3868
      3 C3         29.5791   66.1326    6.3972 C.3         1 KIF       0.1133
      4 O3         29.2775   64.7630    6.1431 O.3         1 KIF      -0.3864
      5 C2         30.3293   66.2921    7.7509 C.3         1 KIF       0.1280
      6 O2         31.4454   65.4078    7.8086 O.3         1 KIF      -0.3847
      7 C1         29.3660   66.0409    8.9418 C.3         1 KIF       0.1599
      8 N9         29.8659   66.5023   10.1854 N.am        1 KIF      -0.2491
      9 C8         29.0904   67.4276   10.6946 C.2         1 KIF       0.2867
     10 O8         29.2965   67.9845   11.7580 O.2         1 KIF      -0.3583
     11 C7         28.0717   67.6503    9.8615 C.2         1 KIF       0.2894
     12 O7         27.1878   68.4729   10.0569 O.2         1 KIF      -0.3581
     13 N          28.1907   66.8558    8.8098 N.am        1 KIF      -0.2273
     14 C5         27.3622   66.8211    7.6221 C.3         1 KIF       0.0996
     15 C6         26.4439   65.5543    7.5945 C.3         1 KIF       0.0701
     16 O6         25.0878   65.8710    7.2976 O.3         1 KIF      -0.3926
     17 H1         27.7159   66.7591    5.4520 H           1 KIF       0.0644
     18 H2         27.8959   68.8567    6.0121 H           1 KIF       0.2100
     19 H3         30.2442   66.4598    5.5918 H           1 KIF       0.0647
     20 H4         28.9590   64.7361    5.2159 H           1 KIF       0.2100
     21 H5         30.7152   67.3176    7.8159 H           1 KIF       0.0665
     22 H6         31.8377   65.5433    8.6974 H           1 KIF       0.2101
     23 H7         29.1032   64.9842    9.0116 H           1 KIF       0.0861
     24 H8         30.6596   66.1535   10.6271 H           1 KIF       0.1890
     25 H9         26.6893   67.6826    7.6357 H           1 KIF       0.0610
     26 H10        26.4433   65.0379    8.5567 H           1 KIF       0.0581
     27 H11        26.7703   64.8454    6.8352 H           1 KIF       0.0581
     28 H12        24.7907   66.4390    8.0399 H           1 KIF       0.2095
@<TRIPOS>BOND
     1     1     2   1
     2     1     3   1
     3     1    14   1
     4     3     4   1
     5     3     5   1
     6     5     6   1
     7     5     7   1
     8     7     8   1
     9     7    13   1
    10     8     9  am
    11     9    10   2
    12     9    11   1
    13    11    12   2
    14    11    13  am
    15    13    14   1
    16    14    15   1
    17    15    16   1
    18     1    17   1
    19     2    18   1
    20     3    19   1
    21     4    20   1
    22     5    21   1
    23     6    22   1
    24     7    23   1
    25     8    24   1
    26    14    25   1
    27    15    26   1
    28    15    27   1
    29    16    28   1
@<TRIPOS>SUBSTRUCTURE
     1  KIF      1

