@<TRIPOS>MOLECULE
1ps3_ligand_001
    28    29
SMALL
GAST_HUCK
****
This file was generated by PARSER (from files_GN.cpp)

@<TRIPOS>ATOM
      1 C4         22.4156   66.7568    8.5020 C.3         1 KIF       0.1090
      2 O4         21.3971   65.8944    7.9768 O.3         1 KIF      -0.3868
      3 C3         22.0098   67.1952    9.9431 C.3         1 KIF       0.1133
      4 O3         22.7935   68.3152   10.3576 O.3         1 KIF      -0.3864
      5 C2         22.1727   66.0363   10.9654 C.3         1 KIF       0.1280
      6 O2         21.9012   66.4850   12.2928 O.3         1 KIF      -0.3847
      7 C1         23.5985   65.4280   10.8639 C.3         1 KIF       0.1599
      8 N9         23.7152   64.1521   11.4676 N.am        1 KIF      -0.2491
      9 C8         24.0699   63.2435   10.5951 C.2         1 KIF       0.2867
     10 O8         24.2482   62.0655   10.8656 O.2         1 KIF      -0.3583
     11 C7         24.1974   63.8138    9.4002 C.2         1 KIF       0.2894
     12 O7         24.5150   63.2167    8.3779 O.2         1 KIF      -0.3581
     13 N          23.9245   65.1030    9.5046 N.am        1 KIF      -0.2273
     14 C5         23.8285   66.0755    8.4374 C.3         1 KIF       0.0996
     15 C6         25.0442   67.0665    8.4499 C.3         1 KIF       0.0701
     16 O6         25.8949   66.8509    7.3224 O.3         1 KIF      -0.3926
     17 H1         22.4038   67.6394    7.8581 H           1 KIF       0.0644
     18 H2         21.8007   65.4052    7.2303 H           1 KIF       0.2100
     19 H3         20.9615   67.5111    9.9324 H           1 KIF       0.0647
     20 H4         22.6746   68.9916    9.6598 H           1 KIF       0.2100
     21 H5         21.4323   65.2705   10.7289 H           1 KIF       0.0665
     22 H6         21.8718   65.6687   12.8376 H           1 KIF       0.2101
     23 H7         24.3410   66.1088   11.2911 H           1 KIF       0.0861
     24 H8         23.5702   63.9779   12.4109 H           1 KIF       0.1890
     25 H9         23.8594   65.5495    7.4775 H           1 KIF       0.0610
     26 H10        25.6543   66.9493    9.3480 H           1 KIF       0.0581
     27 H11        24.7093   68.1039    8.4194 H           1 KIF       0.0581
     28 H12        26.5672   67.5652    7.3525 H           1 KIF       0.2095
@<TRIPOS>BOND
     1     1     2   1
     2     1     3   1
     3     1    14   1
     4     3     4   1
     5     3     5   1
     6     5     6   1
     7     5     7   1
     8     7     8   1
     9     7    13   1
    10     8     9  am
    11     9    10   2
    12     9    11   1
    13    11    12   2
    14    11    13  am
    15    13    14   1
    16    14    15   1
    17    15    16   1
    18     1    17   1
    19     2    18   1
    20     3    19   1
    21     4    20   1
    22     5    21   1
    23     6    22   1
    24     7    23   1
    25     8    24   1
    26    14    25   1
    27    15    26   1
    28    15    27   1
    29    16    28   1
@<TRIPOS>SUBSTRUCTURE
     1  KIF      1

