@<TRIPOS>MOLECULE
1ps3_ligand_004
    28    29
SMALL
GAST_HUCK
****
This file was generated by PARSER (from files_GN.cpp)

@<TRIPOS>ATOM
      1 C4         22.8090   68.1917   10.7035 C.3         1 KIF       0.1090
      2 O4         23.7336   69.1224   10.1309 O.3         1 KIF      -0.3868
      3 C3         21.6824   67.8988    9.6562 C.3         1 KIF       0.1133
      4 O3         20.5133   67.3618   10.2729 O.3         1 KIF      -0.3864
      5 C2         22.1759   66.9506    8.5254 C.3         1 KIF       0.1280
      6 O2         21.0924   66.5656    7.6775 O.3         1 KIF      -0.3847
      7 C1         22.8429   65.6893    9.1247 C.3         1 KIF       0.1599
      8 N9         23.5990   64.9379    8.1929 N.am        1 KIF      -0.2491
      9 C8         24.8448   64.8383    8.5694 C.2         1 KIF       0.2867
     10 O8         25.7003   64.2204    7.9524 O.2         1 KIF      -0.3583
     11 C7         25.0113   65.5246    9.6982 C.2         1 KIF       0.2894
     12 O7         26.0824   65.6628   10.2712 O.2         1 KIF      -0.3581
     13 N          23.8531   66.0378   10.0729 N.am        1 KIF      -0.2273
     14 C5         23.6004   66.9259   11.1855 C.3         1 KIF       0.0996
     15 C6         22.9586   66.1662   12.3832 C.3         1 KIF       0.0701
     16 O6         21.5967   65.7939   12.2097 O.3         1 KIF      -0.3926
     17 H1         22.3683   68.6975   11.5676 H           1 KIF       0.0644
     18 H2         24.1540   68.6525    9.3797 H           1 KIF       0.2100
     19 H3         21.3637   68.8405    9.2029 H           1 KIF       0.0647
     20 H4         20.2173   68.0474   10.9088 H           1 KIF       0.2100
     21 H5         22.9123   67.4854    7.9220 H           1 KIF       0.0665
     22 H6         21.4514   65.8658    7.0871 H           1 KIF       0.2101
     23 H7         22.0946   65.0418    9.5728 H           1 KIF       0.0861
     24 H8         23.2293   64.5286    7.3938 H           1 KIF       0.1890
     25 H9         24.5625   67.2854   11.5704 H           1 KIF       0.0610
     26 H10        23.0090   66.7957   13.2737 H           1 KIF       0.0581
     27 H11        23.5247   65.2546   12.5878 H           1 KIF       0.0581
     28 H12        21.5961   65.1135   11.5044 H           1 KIF       0.2095
@<TRIPOS>BOND
     1     1     2   1
     2     1     3   1
     3     1    14   1
     4     3     4   1
     5     3     5   1
     6     5     6   1
     7     5     7   1
     8     7     8   1
     9     7    13   1
    10     8     9  am
    11     9    10   2
    12     9    11   1
    13    11    12   2
    14    11    13  am
    15    13    14   1
    16    14    15   1
    17    15    16   1
    18     1    17   1
    19     2    18   1
    20     3    19   1
    21     4    20   1
    22     5    21   1
    23     6    22   1
    24     7    23   1
    25     8    24   1
    26    14    25   1
    27    15    26   1
    28    15    27   1
    29    16    28   1
@<TRIPOS>SUBSTRUCTURE
     1  KIF      1

