@<TRIPOS>MOLECULE
1ps3_ligand_007
    28    29
SMALL
GAST_HUCK
****
This file was generated by PARSER (from files_GN.cpp)

@<TRIPOS>ATOM
      1 C4         25.8659   64.9002   10.0392 C.3         1 KIF       0.1090
      2 O4         26.6851   65.1581    8.8970 O.3         1 KIF      -0.3868
      3 C3         24.3994   64.6763    9.5579 C.3         1 KIF       0.1133
      4 O3         23.5194   64.7480   10.6799 O.3         1 KIF      -0.3864
      5 C2         24.2568   63.3217    8.8030 C.3         1 KIF       0.1280
      6 O2         22.9054   63.0523    8.4399 O.3         1 KIF      -0.3847
      7 C1         24.7991   62.1653    9.6807 C.3         1 KIF       0.1599
      8 N9         25.0075   60.9612    8.9644 N.am        1 KIF      -0.2491
      9 C8         26.2693   60.6036    8.9788 C.2         1 KIF       0.2867
     10 O8         26.6980   59.5746    8.4778 O.2         1 KIF      -0.3583
     11 C7         26.9572   61.5184    9.6618 C.2         1 KIF       0.2894
     12 O7         28.1696   61.4801    9.8331 O.2         1 KIF      -0.3581
     13 N          26.1333   62.4507   10.1067 N.am        1 KIF      -0.2273
     14 C5         26.4733   63.6741   10.8041 C.3         1 KIF       0.0996
     15 C6         26.0492   63.5892   12.2984 C.3         1 KIF       0.0701
     16 O6         26.5041   64.7235   13.0376 O.3         1 KIF      -0.3926
     17 H1         25.9085   65.7912   10.6702 H           1 KIF       0.0644
     18 H2         26.3411   65.9932    8.5062 H           1 KIF       0.2100
     19 H3         24.1205   65.4875    8.8807 H           1 KIF       0.0647
     20 H4         22.6107   64.6548   10.3247 H           1 KIF       0.2100
     21 H5         24.8439   63.3747    7.8829 H           1 KIF       0.0665
     22 H6         22.6845   63.6969    7.7330 H           1 KIF       0.2101
     23 H7         24.1436   61.9732   10.5361 H           1 KIF       0.0861
     24 H8         24.3001   60.4122    8.5973 H           1 KIF       0.1890
     25 H9         27.5615   63.7986   10.8172 H           1 KIF       0.0610
     26 H10        26.4809   62.6995   12.7578 H           1 KIF       0.0581
     27 H11        24.9607   63.5315   12.4050 H           1 KIF       0.0581
     28 H12        27.4858   64.6899   12.9790 H           1 KIF       0.2095
@<TRIPOS>BOND
     1     1     2   1
     2     1     3   1
     3     1    14   1
     4     3     4   1
     5     3     5   1
     6     5     6   1
     7     5     7   1
     8     7     8   1
     9     7    13   1
    10     8     9  am
    11     9    10   2
    12     9    11   1
    13    11    12   2
    14    11    13  am
    15    13    14   1
    16    14    15   1
    17    15    16   1
    18     1    17   1
    19     2    18   1
    20     3    19   1
    21     4    20   1
    22     5    21   1
    23     6    22   1
    24     7    23   1
    25     8    24   1
    26    14    25   1
    27    15    26   1
    28    15    27   1
    29    16    28   1
@<TRIPOS>SUBSTRUCTURE
     1  KIF      1

