@<TRIPOS>MOLECULE
1q8t_ligand_043
    40    41
SMALL
GAST_HUCK
****
This file was generated by PARSER (from files_GN.cpp)

@<TRIPOS>ATOM
      1 O23        18.1352    7.4095   10.2811 O.2         1 Y27      -0.3826
      2 C22        17.9602    8.5965   10.0243 C.2         1 Y27       0.2105
      3 C31        18.0279    9.0267    8.6291 C.3         1 Y27       0.0554
      4 C36        16.7796    9.8741    8.2347 C.3         1 Y27      -0.0322
      5 C35        16.8409   10.3269    6.7523 C.3         1 Y27      -0.0428
      6 C34        18.1585   11.1002    6.4261 C.3         1 Y27       0.0020
      7 C33        19.3990   10.2323    6.8149 C.3         1 Y27      -0.0428
      8 C32        19.3524    9.7814    8.2997 C.3         1 Y27      -0.0322
      9 C41        18.1785   11.6139    4.9455 C.3         1 Y27      -0.0244
     10 C42        19.4876   12.3484    4.5625 C.3         1 Y27      -0.0215
     11 N43        17.9126   10.5470    3.9651 N.4         1 Y27       0.2207
     12 N21        17.7661    9.4913   10.9879 N.am        1 Y27      -0.2247
     13 C14        17.6133    9.2692   12.3270 C.ar        1 Y27       0.0867
     14 C15        17.2812    8.0074   12.8774 C.ar        1 Y27      -0.0140
     15 C16        17.1273    7.8776   14.2697 C.ar        1 Y27      -0.0065
     16 N11        17.2919    8.9595   15.0717 N.ar        1 Y27      -0.3199
     17 C12        17.5904   10.1890   14.5826 C.ar        1 Y27      -0.0065
     18 C13        17.7392   10.3744   13.1957 C.ar        1 Y27      -0.0140
     19 H1         18.0144    8.1382    7.9884 H           1 Y27       0.0544
     20 H2         16.7025   10.7605    8.8715 H           1 Y27       0.0293
     21 H3         15.8721    9.2799    8.3801 H           1 Y27       0.0293
     22 H4         15.9759   10.9649    6.5507 H           1 Y27       0.0271
     23 H5         16.7581    9.4442    6.1130 H           1 Y27       0.0271
     24 H6         18.1661   11.9874    7.0688 H           1 Y27       0.0355
     25 H7         20.3192   10.7997    6.6594 H           1 Y27       0.0271
     26 H8         19.4452    9.3436    6.1795 H           1 Y27       0.0271
     27 H9         20.2046    9.1224    8.4927 H           1 Y27       0.0293
     28 H10        19.4612   10.6627    8.9384 H           1 Y27       0.0293
     29 H11        17.3754   12.3438    4.8315 H           1 Y27       0.0850
     30 H12        19.3953   12.7825    3.5645 H           1 Y27       0.0284
     31 H13        20.3361   11.6634    4.5612 H           1 Y27       0.0284
     32 H14        19.6878   13.1574    5.2681 H           1 Y27       0.0284
     33 H15        17.0296   10.0832    4.1857 H           1 Y27       0.1997
     34 H16        18.6709    9.8625    3.9815 H           1 Y27       0.1997
     35 H17        17.8498   10.9541    3.0300 H           1 Y27       0.1997
     36 H18        17.7865   10.4225   10.7151 H           1 Y27       0.2307
     37 H19        17.1312    7.1929   12.2781 H           1 Y27       0.0596
     38 H20        16.8925    6.9737   14.6837 H           1 Y27       0.0771
     39 H21        17.7105   10.9730   15.2261 H           1 Y27       0.0771
     40 H22        17.9659   11.3033   12.8305 H           1 Y27       0.0596
@<TRIPOS>BOND
     1     1     2   2
     2     2     3   1
     3     2    12  am
     4     3     4   1
     5     3     8   1
     6     4     5   1
     7     5     6   1
     8     6     7   1
     9     6     9   1
    10     7     8   1
    11     9    10   1
    12     9    11   1
    13    12    13   1
    14    13    14  ar
    15    13    18  ar
    16    14    15  ar
    17    15    16  ar
    18    16    17  ar
    19    17    18  ar
    20     3    19   1
    21     4    20   1
    22     4    21   1
    23     5    22   1
    24     5    23   1
    25     6    24   1
    26     7    25   1
    27     7    26   1
    28     8    27   1
    29     8    28   1
    30     9    29   1
    31    10    30   1
    32    10    31   1
    33    10    32   1
    34    11    33   1
    35    11    34   1
    36    11    35   1
    37    12    36   1
    38    14    37   1
    39    15    38   1
    40    17    39   1
    41    18    40   1
@<TRIPOS>SUBSTRUCTURE
     1  Y27      2

