@<TRIPOS>MOLECULE
1q8t_ligand_019
    40    41
SMALL
GAST_HUCK
****
This file was generated by PARSER (from files_GN.cpp)

@<TRIPOS>ATOM
      1 O23        18.1925    9.5968    9.0959 O.2         1 Y27      -0.3826
      2 C22        18.7841    8.7167    8.4657 C.2         1 Y27       0.2105
      3 C31        18.7370    8.7462    7.0003 C.3         1 Y27       0.0554
      4 C36        17.4427    9.3666    6.3701 C.3         1 Y27      -0.0322
      5 C35        17.3994   10.9266    6.3837 C.3         1 Y27      -0.0428
      6 C34        18.6885   11.6105    5.8253 C.3         1 Y27       0.0020
      7 C33        19.9542   10.9710    6.4860 C.3         1 Y27      -0.0428
      8 C32        20.0052    9.4254    6.3985 C.3         1 Y27      -0.0322
      9 C41        18.6748   11.8158    4.2583 C.3         1 Y27      -0.0244
     10 C42        20.0270   12.2236    3.6199 C.3         1 Y27      -0.0215
     11 N43        18.1214   10.6949    3.4835 N.4         1 Y27       0.2207
     12 N21        19.4674    7.7525    9.0737 N.am        1 Y27      -0.2247
     13 C14        19.6465    7.4633   10.4000 C.ar        1 Y27       0.0867
     14 C15        18.8368    7.9270   11.4738 C.ar        1 Y27      -0.0140
     15 C16        19.1286    7.5315   12.7900 C.ar        1 Y27      -0.0065
     16 N11        20.1701    6.6963   13.0365 N.ar        1 Y27      -0.3199
     17 C12        20.9496    6.2102   12.0411 C.ar        1 Y27      -0.0065
     18 C13        20.7008    6.5753   10.7058 C.ar        1 Y27      -0.0140
     19 H1         18.7490    7.6993    6.6745 H           1 Y27       0.0544
     20 H2         16.5602    8.9783    6.8889 H           1 Y27       0.0293
     21 H3         17.3573    9.0159    5.3345 H           1 Y27       0.0293
     22 H4         17.2441   11.2476    7.4140 H           1 Y27       0.0271
     23 H5         16.5243   11.2592    5.8194 H           1 Y27       0.0271
     24 H6         18.6740   12.6300    6.2293 H           1 Y27       0.0355
     25 H7         19.9661   11.2374    7.5477 H           1 Y27       0.0271
     26 H8         20.8692   11.3788    6.0625 H           1 Y27       0.0271
     27 H9         20.1079    9.1344    5.3517 H           1 Y27       0.0293
     28 H10        20.9046    9.0662    6.9156 H           1 Y27       0.0293
     29 H11        17.9893   12.6493    4.0682 H           1 Y27       0.0850
     30 H12        19.8691   12.5273    2.5819 H           1 Y27       0.0284
     31 H13        20.7278   11.3851    3.6383 H           1 Y27       0.0284
     32 H14        20.4672   13.0651    4.1548 H           1 Y27       0.0284
     33 H15        17.1311   10.5836    3.7053 H           1 Y27       0.1997
     34 H16        18.6390    9.8397    3.6882 H           1 Y27       0.1997
     35 H17        18.2078   10.9087    2.4850 H           1 Y27       0.1997
     36 H18        19.9096    7.1286    8.4621 H           1 Y27       0.2307
     37 H19        18.0277    8.5223   11.3231 H           1 Y27       0.0596
     38 H20        18.5583    7.8674   13.5714 H           1 Y27       0.0771
     39 H21        21.7184    5.5698   12.2692 H           1 Y27       0.0771
     40 H22        21.2919    6.1920    9.9660 H           1 Y27       0.0596
@<TRIPOS>BOND
     1     1     2   2
     2     2     3   1
     3     2    12  am
     4     3     4   1
     5     3     8   1
     6     4     5   1
     7     5     6   1
     8     6     7   1
     9     6     9   1
    10     7     8   1
    11     9    10   1
    12     9    11   1
    13    12    13   1
    14    13    14  ar
    15    13    18  ar
    16    14    15  ar
    17    15    16  ar
    18    16    17  ar
    19    17    18  ar
    20     3    19   1
    21     4    20   1
    22     4    21   1
    23     5    22   1
    24     5    23   1
    25     6    24   1
    26     7    25   1
    27     7    26   1
    28     8    27   1
    29     8    28   1
    30     9    29   1
    31    10    30   1
    32    10    31   1
    33    10    32   1
    34    11    33   1
    35    11    34   1
    36    11    35   1
    37    12    36   1
    38    14    37   1
    39    15    38   1
    40    17    39   1
    41    18    40   1
@<TRIPOS>SUBSTRUCTURE
     1  Y27      2

