@<TRIPOS>MOLECULE
1q8t_ligand_053
    40    41
SMALL
GAST_HUCK
****
This file was generated by PARSER (from files_GN.cpp)

@<TRIPOS>ATOM
      1 O23        17.1147    8.6706    7.1145 O.2         1 Y27      -0.3826
      2 C22        17.3768    8.8380    5.9238 C.2         1 Y27       0.2105
      3 C31        16.2550    8.9177    4.9975 C.3         1 Y27       0.0554
      4 C36        16.5272    8.5044    3.5170 C.3         1 Y27      -0.0322
      5 C35        16.7403    6.9753    3.3973 C.3         1 Y27      -0.0428
      6 C34        15.4885    6.1518    3.8573 C.3         1 Y27       0.0020
      7 C33        15.1003    6.6074    5.3063 C.3         1 Y27      -0.0428
      8 C32        14.9763    8.1506    5.4740 C.3         1 Y27      -0.0322
      9 C41        14.2923    6.0137    2.8318 C.3         1 Y27      -0.0244
     10 C42        12.9794    6.8139    3.0581 C.3         1 Y27      -0.0215
     11 N43        14.7042    6.2898    1.4399 N.4         1 Y27       0.2207
     12 N21        18.6554    9.0371    5.5597 N.am        1 Y27      -0.2247
     13 C14        19.7102    9.1576    6.4098 C.ar        1 Y27       0.0867
     14 C15        20.7485    8.1927    6.3734 C.ar        1 Y27      -0.0140
     15 C16        21.8207    8.2995    7.2781 C.ar        1 Y27      -0.0065
     16 N11        21.8721    9.3414    8.1554 N.ar        1 Y27      -0.3199
     17 C12        20.9069   10.2983    8.2040 C.ar        1 Y27      -0.0065
     18 C13        19.8134   10.2314    7.3254 C.ar        1 Y27      -0.0140
     19 H1         15.9952    9.9788    4.9839 H           1 Y27       0.0544
     20 H2         17.3984    9.0376    3.1219 H           1 Y27       0.0293
     21 H3         15.6762    8.7916    2.8887 H           1 Y27       0.0293
     22 H4         17.5904    6.6906    4.0226 H           1 Y27       0.0271
     23 H5         17.0298    6.7172    2.3789 H           1 Y27       0.0271
     24 H6         15.8662    5.1294    3.9753 H           1 Y27       0.0355
     25 H7         15.8736    6.2672    5.9927 H           1 Y27       0.0271
     26 H8         14.1756    6.1249    5.6278 H           1 Y27       0.0271
     27 H9         14.1207    8.5121    4.9072 H           1 Y27       0.0293
     28 H10        14.7561    8.3910    6.5178 H           1 Y27       0.0293
     29 H11        13.9863    4.9590    2.8348 H           1 Y27       0.0850
     30 H12        12.2117    6.4746    2.3573 H           1 Y27       0.0284
     31 H13        13.1465    7.8860    2.9001 H           1 Y27       0.0284
     32 H14        12.5878    6.6558    4.0682 H           1 Y27       0.0284
     33 H15        15.5850    5.8112    1.2452 H           1 Y27       0.1997
     34 H16        14.8205    7.3002    1.3177 H           1 Y27       0.1997
     35 H17        13.9815    5.9425    0.8071 H           1 Y27       0.1997
     36 H18        18.8568    9.0724    4.6176 H           1 Y27       0.2307
     37 H19        20.7113    7.4093    5.7121 H           1 Y27       0.0596
     38 H20        22.5716    7.6041    7.2849 H           1 Y27       0.0771
     39 H21        20.9810   11.0624    8.8808 H           1 Y27       0.0771
     40 H22        19.0961   10.9627    7.3467 H           1 Y27       0.0596
@<TRIPOS>BOND
     1     1     2   2
     2     2     3   1
     3     2    12  am
     4     3     4   1
     5     3     8   1
     6     4     5   1
     7     5     6   1
     8     6     7   1
     9     6     9   1
    10     7     8   1
    11     9    10   1
    12     9    11   1
    13    12    13   1
    14    13    14  ar
    15    13    18  ar
    16    14    15  ar
    17    15    16  ar
    18    16    17  ar
    19    17    18  ar
    20     3    19   1
    21     4    20   1
    22     4    21   1
    23     5    22   1
    24     5    23   1
    25     6    24   1
    26     7    25   1
    27     7    26   1
    28     8    27   1
    29     8    28   1
    30     9    29   1
    31    10    30   1
    32    10    31   1
    33    10    32   1
    34    11    33   1
    35    11    34   1
    36    11    35   1
    37    12    36   1
    38    14    37   1
    39    15    38   1
    40    17    39   1
    41    18    40   1
@<TRIPOS>SUBSTRUCTURE
     1  Y27      2

