@<TRIPOS>MOLECULE
1q8t_ligand_006
    40    41
SMALL
GAST_HUCK
****
This file was generated by PARSER (from files_GN.cpp)

@<TRIPOS>ATOM
      1 O23        16.8046    9.0334    1.1950 O.2         1 Y27      -0.3826
      2 C22        17.4545    9.6281    0.3377 C.2         1 Y27       0.2105
      3 C31        17.1313    9.3702   -1.0694 C.3         1 Y27       0.0554
      4 C36        16.4563   10.5944   -1.7509 C.3         1 Y27      -0.0322
      5 C35        16.0600   10.2714   -3.2192 C.3         1 Y27      -0.0428
      6 C34        17.2708    9.7764   -4.0762 C.3         1 Y27       0.0020
      7 C33        17.9742    8.5825   -3.3572 C.3         1 Y27      -0.0428
      8 C32        18.3720    8.9127   -1.8982 C.3         1 Y27      -0.0322
      9 C41        16.9428    9.4026   -5.5732 C.3         1 Y27      -0.0244
     10 C42        15.6727   10.0382   -6.1931 C.3         1 Y27      -0.0215
     11 N43        18.0807    9.7610   -6.4406 N.4         1 Y27       0.2207
     12 N21        18.4661   10.4270    0.6654 N.am        1 Y27      -0.2247
     13 C14        18.9035   10.8344    1.8928 C.ar        1 Y27       0.0867
     14 C15        18.1197   10.8759    3.0690 C.ar        1 Y27      -0.0140
     15 C16        18.6730   11.3831    4.2592 C.ar        1 Y27      -0.0065
     16 N11        19.9590   11.8289    4.2709 N.ar        1 Y27      -0.3199
     17 C12        20.7438   11.8081    3.1711 C.ar        1 Y27      -0.0065
     18 C13        20.2312   11.3201    1.9557 C.ar        1 Y27      -0.0140
     19 H1         16.4041    8.5477   -1.1072 H           1 Y27       0.0544
     20 H2         17.1363   11.4473   -1.7522 H           1 Y27       0.0293
     21 H3         15.5577   10.8786   -1.1983 H           1 Y27       0.0293
     22 H4         15.6408   11.1817   -3.6528 H           1 Y27       0.0271
     23 H5         15.2746    9.5072   -3.2184 H           1 Y27       0.0271
     24 H6         17.9832   10.6050   -4.0887 H           1 Y27       0.0355
     25 H7         18.8736    8.2918   -3.9051 H           1 Y27       0.0271
     26 H8         17.3014    7.7178   -3.3416 H           1 Y27       0.0271
     27 H9         18.8141    8.0299   -1.4335 H           1 Y27       0.0293
     28 H10        19.1313    9.7012   -1.9145 H           1 Y27       0.0293
     29 H11        16.8058    8.3227   -5.6610 H           1 Y27       0.0850
     30 H12        15.6104    9.8127   -7.2608 H           1 Y27       0.0284
     31 H13        15.6824   11.1255   -6.0764 H           1 Y27       0.0284
     32 H14        14.7748    9.6380   -5.7125 H           1 Y27       0.0284
     33 H15        18.9677    9.4446   -6.0366 H           1 Y27       0.1997
     34 H16        18.1125   10.7787   -6.5512 H           1 Y27       0.1997
     35 H17        17.9577    9.3403   -7.3635 H           1 Y27       0.1997
     36 H18        18.9992   10.7409   -0.0817 H           1 Y27       0.2307
     37 H19        17.1511   10.5802    3.0676 H           1 Y27       0.0596
     38 H20        18.1155   11.4341    5.1090 H           1 Y27       0.0771
     39 H21        21.7051   12.1562    3.2235 H           1 Y27       0.0771
     40 H22        20.8327   11.3136    1.1223 H           1 Y27       0.0596
@<TRIPOS>BOND
     1     1     2   2
     2     2     3   1
     3     2    12  am
     4     3     4   1
     5     3     8   1
     6     4     5   1
     7     5     6   1
     8     6     7   1
     9     6     9   1
    10     7     8   1
    11     9    10   1
    12     9    11   1
    13    12    13   1
    14    13    14  ar
    15    13    18  ar
    16    14    15  ar
    17    15    16  ar
    18    16    17  ar
    19    17    18  ar
    20     3    19   1
    21     4    20   1
    22     4    21   1
    23     5    22   1
    24     5    23   1
    25     6    24   1
    26     7    25   1
    27     7    26   1
    28     8    27   1
    29     8    28   1
    30     9    29   1
    31    10    30   1
    32    10    31   1
    33    10    32   1
    34    11    33   1
    35    11    34   1
    36    11    35   1
    37    12    36   1
    38    14    37   1
    39    15    38   1
    40    17    39   1
    41    18    40   1
@<TRIPOS>SUBSTRUCTURE
     1  Y27      2

