@<TRIPOS>MOLECULE
1q8t_ligand_027
    40    41
SMALL
GAST_HUCK
****
This file was generated by PARSER (from files_GN.cpp)

@<TRIPOS>ATOM
      1 O23        17.1325   10.8729   -0.3891 O.2         1 Y27      -0.3826
      2 C22        16.2260   10.0566   -0.3035 C.2         1 Y27       0.2105
      3 C31        16.6250    8.6752    0.0077 C.3         1 Y27       0.0554
      4 C36        17.5754    8.5885    1.2541 C.3         1 Y27      -0.0322
      5 C35        16.8089    8.7662    2.5937 C.3         1 Y27      -0.0428
      6 C34        15.6418    7.7339    2.7639 C.3         1 Y27       0.0020
      7 C33        14.6971    7.8555    1.5241 C.3         1 Y27      -0.0428
      8 C32        15.4595    7.6541    0.1823 C.3         1 Y27      -0.0322
      9 C41        16.1371    6.2717    3.0525 C.3         1 Y27      -0.0244
     10 C42        16.7964    6.0937    4.4467 C.3         1 Y27      -0.0215
     11 N43        15.0406    5.2955    2.9571 N.4         1 Y27       0.2207
     12 N21        14.9635   10.4330   -0.4943 N.am        1 Y27      -0.2247
     13 C14        14.4588   11.6656   -0.8007 C.ar        1 Y27       0.0867
     14 C15        15.1596   12.6710   -1.5128 C.ar        1 Y27      -0.0140
     15 C16        14.5403   13.9026   -1.7754 C.ar        1 Y27      -0.0065
     16 N11        13.2626   14.1118   -1.3674 N.ar        1 Y27      -0.3199
     17 C12        12.5456   13.1705   -0.7062 C.ar        1 Y27      -0.0065
     18 C13        13.1233   11.9252   -0.4193 C.ar        1 Y27      -0.0140
     19 H1         17.2073    8.3357   -0.8579 H           1 Y27       0.0544
     20 H2         18.3675    9.3377    1.1929 H           1 Y27       0.0293
     21 H3         18.0780    7.6202    1.2517 H           1 Y27       0.0293
     22 H4         16.3970    9.7798    2.6221 H           1 Y27       0.0271
     23 H5         17.5143    8.6945    3.4239 H           1 Y27       0.0271
     24 H6         15.0564    8.0521    3.6338 H           1 Y27       0.0355
     25 H7         14.2356    8.8452    1.5385 H           1 Y27       0.0271
     26 H8         13.8728    7.1449    1.5882 H           1 Y27       0.0271
     27 H9         15.8578    6.6354    0.1534 H           1 Y27       0.0293
     28 H10        14.7596    7.7288   -0.6517 H           1 Y27       0.0293
     29 H11        16.8699    5.9719    2.3054 H           1 Y27       0.0850
     30 H12        16.9939    5.0383    4.6404 H           1 Y27       0.0284
     31 H13        16.1413    6.4709    5.2329 H           1 Y27       0.0284
     32 H14        17.7492    6.6215    4.4955 H           1 Y27       0.0284
     33 H15        14.6615    5.2784    2.0095 H           1 Y27       0.1997
     34 H16        14.2994    5.5522    3.6086 H           1 Y27       0.1997
     35 H17        15.3959    4.3663    3.1829 H           1 Y27       0.1997
     36 H18        14.2928    9.7433   -0.3603 H           1 Y27       0.2307
     37 H19        16.0999   12.5176   -1.8675 H           1 Y27       0.0596
     38 H20        15.0363   14.6327   -2.2850 H           1 Y27       0.0771
     39 H21        11.5793   13.3737   -0.4364 H           1 Y27       0.0771
     40 H22        12.5748   11.2202    0.0806 H           1 Y27       0.0596
@<TRIPOS>BOND
     1     1     2   2
     2     2     3   1
     3     2    12  am
     4     3     4   1
     5     3     8   1
     6     4     5   1
     7     5     6   1
     8     6     7   1
     9     6     9   1
    10     7     8   1
    11     9    10   1
    12     9    11   1
    13    12    13   1
    14    13    14  ar
    15    13    18  ar
    16    14    15  ar
    17    15    16  ar
    18    16    17  ar
    19    17    18  ar
    20     3    19   1
    21     4    20   1
    22     4    21   1
    23     5    22   1
    24     5    23   1
    25     6    24   1
    26     7    25   1
    27     7    26   1
    28     8    27   1
    29     8    28   1
    30     9    29   1
    31    10    30   1
    32    10    31   1
    33    10    32   1
    34    11    33   1
    35    11    34   1
    36    11    35   1
    37    12    36   1
    38    14    37   1
    39    15    38   1
    40    17    39   1
    41    18    40   1
@<TRIPOS>SUBSTRUCTURE
     1  Y27      2

