@<TRIPOS>MOLECULE
1q8t_ligand_065
    40    41
SMALL
GAST_HUCK
****
This file was generated by PARSER (from files_GN.cpp)

@<TRIPOS>ATOM
      1 O23        14.4394   12.6703   -3.1741 O.2         1 Y27      -0.3826
      2 C22        15.0188   11.9692   -2.3511 C.2         1 Y27       0.2105
      3 C31        14.9772   12.3128   -0.9237 C.3         1 Y27       0.0554
      4 C36        14.4830   13.7588   -0.5857 C.3         1 Y27      -0.0322
      5 C35        12.9361   13.9392   -0.6573 C.3         1 Y27      -0.0428
      6 C34        12.1174   12.8471    0.1078 C.3         1 Y27       0.0020
      7 C33        12.6454   11.4285   -0.2861 C.3         1 Y27      -0.0428
      8 C32        14.1724   11.2674   -0.0897 C.3         1 Y27      -0.0322
      9 C41        11.9213   13.1596    1.6402 C.3         1 Y27      -0.0244
     10 C42        11.4887   11.9577    2.5186 C.3         1 Y27      -0.0215
     11 N43        13.0700   13.7758    2.3124 N.4         1 Y27       0.2207
     12 N21        15.7975   10.9640   -2.7424 N.am        1 Y27      -0.2247
     13 C14        16.0721   10.5196   -4.0062 C.ar        1 Y27       0.0867
     14 C15        15.1429   10.5135   -5.0750 C.ar        1 Y27      -0.0140
     15 C16        15.5410   10.0419   -6.3394 C.ar        1 Y27      -0.0065
     16 N11        16.8056    9.5878   -6.5239 N.ar        1 Y27      -0.3199
     17 C12        17.7205    9.5589   -5.5238 C.ar        1 Y27      -0.0065
     18 C13        17.3676   10.0082   -4.2385 C.ar        1 Y27      -0.0140
     19 H1         16.0150   12.2662   -0.5774 H           1 Y27       0.0544
     20 H2         14.9517   14.4761   -1.2634 H           1 Y27       0.0293
     21 H3         14.8312   14.0188    0.4147 H           1 Y27       0.0293
     22 H4         12.6464   13.9181   -1.7091 H           1 Y27       0.0271
     23 H5         12.6719   14.9328   -0.2838 H           1 Y27       0.0271
     24 H6         11.1028   12.8862   -0.3085 H           1 Y27       0.0355
     25 H7         12.4199   11.2517   -1.3413 H           1 Y27       0.0271
     26 H8         12.1223   10.6469    0.2663 H           1 Y27       0.0271
     27 H9         14.4053   11.3828    0.9729 H           1 Y27       0.0293
     28 H10        14.4604   10.2490   -0.3678 H           1 Y27       0.0293
     29 H11        11.1311   13.9105    1.7088 H           1 Y27       0.0850
     30 H12        11.1813   12.3049    3.5069 H           1 Y27       0.0284
     31 H13        12.3191   11.2600    2.6451 H           1 Y27       0.0284
     32 H14        10.6509   11.4273    2.0658 H           1 Y27       0.0284
     33 H15        13.3374   14.6512    1.8654 H           1 Y27       0.1997
     34 H16        13.8547   13.1307    2.2748 H           1 Y27       0.1997
     35 H17        12.8238   13.9705    3.2860 H           1 Y27       0.1997
     36 H18        16.3200   10.5463   -2.0391 H           1 Y27       0.2307
     37 H19        14.1798   10.8219   -4.9387 H           1 Y27       0.0596
     38 H20        14.8836   10.0325   -7.1207 H           1 Y27       0.0771
     39 H21        18.6600    9.2067   -5.7083 H           1 Y27       0.0771
     40 H22        18.0649    9.9843   -3.4903 H           1 Y27       0.0596
@<TRIPOS>BOND
     1     1     2   2
     2     2     3   1
     3     2    12  am
     4     3     4   1
     5     3     8   1
     6     4     5   1
     7     5     6   1
     8     6     7   1
     9     6     9   1
    10     7     8   1
    11     9    10   1
    12     9    11   1
    13    12    13   1
    14    13    14  ar
    15    13    18  ar
    16    14    15  ar
    17    15    16  ar
    18    16    17  ar
    19    17    18  ar
    20     3    19   1
    21     4    20   1
    22     4    21   1
    23     5    22   1
    24     5    23   1
    25     6    24   1
    26     7    25   1
    27     7    26   1
    28     8    27   1
    29     8    28   1
    30     9    29   1
    31    10    30   1
    32    10    31   1
    33    10    32   1
    34    11    33   1
    35    11    34   1
    36    11    35   1
    37    12    36   1
    38    14    37   1
    39    15    38   1
    40    17    39   1
    41    18    40   1
@<TRIPOS>SUBSTRUCTURE
     1  Y27      2

