@<TRIPOS>MOLECULE
1q8t_ligand_039
    40    41
SMALL
GAST_HUCK
****
This file was generated by PARSER (from files_GN.cpp)

@<TRIPOS>ATOM
      1 O23        15.7513    8.5082    5.4784 O.2         1 Y27      -0.3826
      2 C22        16.8118    8.6773    4.8866 C.2         1 Y27       0.2105
      3 C31        16.7989    8.7377    3.4231 C.3         1 Y27       0.0554
      4 C36        17.5874    9.9639    2.8575 C.3         1 Y27      -0.0322
      5 C35        17.5520   10.0204    1.3054 C.3         1 Y27      -0.0428
      6 C34        18.0453    8.6968    0.6371 C.3         1 Y27       0.0020
      7 C33        17.2536    7.4826    1.2216 C.3         1 Y27      -0.0428
      8 C32        17.3244    7.4215    2.7734 C.3         1 Y27      -0.0322
      9 C41        18.0474    8.7018   -0.9385 C.3         1 Y27      -0.0244
     10 C42        16.9829    9.5876   -1.6388 C.3         1 Y27      -0.0215
     11 N43        19.3703    9.0766   -1.4675 N.4         1 Y27       0.2207
     12 N21        17.9631    8.7344    5.5478 N.am        1 Y27      -0.2247
     13 C14        18.1924    8.7149    6.8971 C.ar        1 Y27       0.0867
     14 C15        17.2872    9.1708    7.8845 C.ar        1 Y27      -0.0140
     15 C16        17.6562    9.1169    9.2405 C.ar        1 Y27      -0.0065
     16 N11        18.8706    8.6322    9.5940 N.ar        1 Y27      -0.3199
     17 C12        19.7765    8.1981    8.6796 C.ar        1 Y27      -0.0065
     18 C13        19.4612    8.2489    7.3071 C.ar        1 Y27      -0.0140
     19 H1         15.7581    8.8559    3.0907 H           1 Y27       0.0544
     20 H2         18.6322    9.9225    3.1689 H           1 Y27       0.0293
     21 H3         17.1635   10.8874    3.2563 H           1 Y27       0.0293
     22 H4         18.1817   10.8504    0.9680 H           1 Y27       0.0271
     23 H5         16.5232   10.2316    1.0007 H           1 Y27       0.0271
     24 H6         19.0831    8.5555    0.9623 H           1 Y27       0.0355
     25 H7         17.6700    6.5535    0.8256 H           1 Y27       0.0271
     26 H8         16.2072    7.5373    0.9064 H           1 Y27       0.0271
     27 H9         16.7228    6.5736    3.1159 H           1 Y27       0.0293
     28 H10        18.3608    7.2389    3.0752 H           1 Y27       0.0293
     29 H11        17.8842    7.6809   -1.2932 H           1 Y27       0.0850
     30 H12        17.0096    9.4224   -2.7186 H           1 Y27       0.0284
     31 H13        17.1766   10.6456   -1.4537 H           1 Y27       0.0284
     32 H14        15.9827    9.3400   -1.2794 H           1 Y27       0.0284
     33 H15        20.0845    8.4278   -1.1236 H           1 Y27       0.1997
     34 H16        19.6096   10.0301   -1.1840 H           1 Y27       0.1997
     35 H17        19.3436    9.0237   -2.4879 H           1 Y27       0.1997
     36 H18        18.7617    8.7651    4.9871 H           1 Y27       0.2307
     37 H19        16.3820    9.5558    7.6212 H           1 Y27       0.0596
     38 H20        17.0251    9.4453    9.9678 H           1 Y27       0.0771
     39 H21        20.6893    7.8477    8.9859 H           1 Y27       0.0771
     40 H22        20.1532    7.9282    6.6187 H           1 Y27       0.0596
@<TRIPOS>BOND
     1     1     2   2
     2     2     3   1
     3     2    12  am
     4     3     4   1
     5     3     8   1
     6     4     5   1
     7     5     6   1
     8     6     7   1
     9     6     9   1
    10     7     8   1
    11     9    10   1
    12     9    11   1
    13    12    13   1
    14    13    14  ar
    15    13    18  ar
    16    14    15  ar
    17    15    16  ar
    18    16    17  ar
    19    17    18  ar
    20     3    19   1
    21     4    20   1
    22     4    21   1
    23     5    22   1
    24     5    23   1
    25     6    24   1
    26     7    25   1
    27     7    26   1
    28     8    27   1
    29     8    28   1
    30     9    29   1
    31    10    30   1
    32    10    31   1
    33    10    32   1
    34    11    33   1
    35    11    34   1
    36    11    35   1
    37    12    36   1
    38    14    37   1
    39    15    38   1
    40    17    39   1
    41    18    40   1
@<TRIPOS>SUBSTRUCTURE
     1  Y27      2

