@<TRIPOS>MOLECULE
1q8t_ligand_004
    40    41
SMALL
GAST_HUCK
****
This file was generated by PARSER (from files_GN.cpp)

@<TRIPOS>ATOM
      1 O23        17.1278    6.6856    0.4226 O.2         1 Y27      -0.3826
      2 C22        16.9921    7.8864    0.2332 C.2         1 Y27       0.2105
      3 C31        16.6413    8.3656   -1.1116 C.3         1 Y27       0.0554
      4 C36        17.7668    9.2718   -1.7089 C.3         1 Y27      -0.0322
      5 C35        17.4304    9.8013   -3.1322 C.3         1 Y27      -0.0428
      6 C34        17.1177    8.6357   -4.1198 C.3         1 Y27       0.0020
      7 C33        15.9613    7.7592   -3.5473 C.3         1 Y27      -0.0428
      8 C32        16.2791    7.2270   -2.1261 C.3         1 Y27      -0.0322
      9 C41        16.8692    9.0708   -5.6060 C.3         1 Y27      -0.0244
     10 C42        15.5952    9.9173   -5.8555 C.3         1 Y27      -0.0215
     11 N43        18.0332    9.8042   -6.1393 N.4         1 Y27       0.2207
     12 N21        17.1149    8.7601    1.2311 N.am        1 Y27      -0.2247
     13 C14        17.4389    8.5998    2.5598 C.ar        1 Y27       0.0867
     14 C15        17.4602    9.7808    3.3379 C.ar        1 Y27      -0.0140
     15 C16        17.7619    9.7234    4.7109 C.ar        1 Y27      -0.0065
     16 N11        18.0460    8.5296    5.2881 N.ar        1 Y27      -0.3199
     17 C12        18.0535    7.3704    4.5869 C.ar        1 Y27      -0.0065
     18 C13        17.7582    7.3805    3.2108 C.ar        1 Y27      -0.0140
     19 H1         15.7418    8.9792   -0.9969 H           1 Y27       0.0544
     20 H2         18.7017    8.7051   -1.7603 H           1 Y27       0.0293
     21 H3         17.9381   10.1337   -1.0580 H           1 Y27       0.0293
     22 H4         18.2877   10.3741   -3.4946 H           1 Y27       0.0271
     23 H5         16.5781   10.4826   -3.0702 H           1 Y27       0.0271
     24 H6         18.0113    8.0024   -4.1423 H           1 Y27       0.0355
     25 H7         15.7856    6.9067   -4.2097 H           1 Y27       0.0271
     26 H8         15.0366    8.3388   -3.4918 H           1 Y27       0.0271
     27 H9         15.4057    6.6784   -1.7603 H           1 Y27       0.0293
     28 H10        17.1067    6.5172   -2.2037 H           1 Y27       0.0293
     29 H11        16.7659    8.1624   -6.2055 H           1 Y27       0.0850
     30 H12        15.5044   10.1513   -6.9176 H           1 Y27       0.0284
     31 H13        15.6342   10.8526   -5.2975 H           1 Y27       0.0284
     32 H14        14.6994    9.3717   -5.5607 H           1 Y27       0.0284
     33 H15        18.9124    9.3201   -5.9416 H           1 Y27       0.1997
     34 H16        18.0700   10.7186   -5.6968 H           1 Y27       0.1997
     35 H17        17.9415    9.9320   -7.1505 H           1 Y27       0.1997
     36 H18        16.9296    9.6785    0.9786 H           1 Y27       0.2307
     37 H19        17.2570   10.6883    2.9153 H           1 Y27       0.0596
     38 H20        17.7733   10.5736    5.2767 H           1 Y27       0.0771
     39 H21        18.2771    6.4943    5.0639 H           1 Y27       0.0771
     40 H22        17.7785    6.4940    2.7136 H           1 Y27       0.0596
@<TRIPOS>BOND
     1     1     2   2
     2     2     3   1
     3     2    12  am
     4     3     4   1
     5     3     8   1
     6     4     5   1
     7     5     6   1
     8     6     7   1
     9     6     9   1
    10     7     8   1
    11     9    10   1
    12     9    11   1
    13    12    13   1
    14    13    14  ar
    15    13    18  ar
    16    14    15  ar
    17    15    16  ar
    18    16    17  ar
    19    17    18  ar
    20     3    19   1
    21     4    20   1
    22     4    21   1
    23     5    22   1
    24     5    23   1
    25     6    24   1
    26     7    25   1
    27     7    26   1
    28     8    27   1
    29     8    28   1
    30     9    29   1
    31    10    30   1
    32    10    31   1
    33    10    32   1
    34    11    33   1
    35    11    34   1
    36    11    35   1
    37    12    36   1
    38    14    37   1
    39    15    38   1
    40    17    39   1
    41    18    40   1
@<TRIPOS>SUBSTRUCTURE
     1  Y27      2

