@<TRIPOS>MOLECULE
1q8t_ligand_072
    40    41
SMALL
GAST_HUCK
****
This file was generated by PARSER (from files_GN.cpp)

@<TRIPOS>ATOM
      1 O23        15.1160    9.8297    7.6347 O.2         1 Y27      -0.3826
      2 C22        15.6803    9.2535    6.7152 C.2         1 Y27       0.2105
      3 C31        14.9120    9.0816    5.4759 C.3         1 Y27       0.0554
      4 C36        15.7471    8.7568    4.1940 C.3         1 Y27      -0.0322
      5 C35        14.8552    8.6502    2.9291 C.3         1 Y27      -0.0428
      6 C34        13.7206    7.5903    3.1068 C.3         1 Y27       0.0020
      7 C33        12.8873    7.9031    4.3854 C.3         1 Y27      -0.0428
      8 C32        13.7793    8.0205    5.6523 C.3         1 Y27      -0.0322
      9 C41        12.8271    7.3870    1.8389 C.3         1 Y27      -0.0244
     10 C42        12.0292    8.6247    1.3496 C.3         1 Y27      -0.0215
     11 N43        13.6436    6.8886    0.7214 N.4         1 Y27       0.2207
     12 N21        16.9191    8.7857    6.8522 N.am        1 Y27      -0.2247
     13 C14        17.7958    8.7788    7.9070 C.ar        1 Y27       0.0867
     14 C15        17.5464    9.2060    9.2388 C.ar        1 Y27      -0.0140
     15 C16        18.5581    9.0912   10.2115 C.ar        1 Y27      -0.0065
     16 N11        19.7654    8.5576    9.8829 N.ar        1 Y27      -0.3199
     17 C12        20.0433    8.1315    8.6267 C.ar        1 Y27      -0.0065
     18 C13        19.0688    8.2412    7.6164 C.ar        1 Y27      -0.0140
     19 H1         14.4248   10.0446    5.2781 H           1 Y27       0.0544
     20 H2         16.2772    7.8089    4.3194 H           1 Y27       0.0293
     21 H3         16.4933    9.5410    4.0331 H           1 Y27       0.0293
     22 H4         15.4973    8.3780    2.0891 H           1 Y27       0.0271
     23 H5         14.4240    9.6302    2.7137 H           1 Y27       0.0271
     24 H6         14.2121    6.6273    3.2831 H           1 Y27       0.0355
     25 H7         12.1516    7.1121    4.5489 H           1 Y27       0.0271
     26 H8         12.3465    8.8435    4.2637 H           1 Y27       0.0271
     27 H9         13.1400    8.2928    6.4998 H           1 Y27       0.0293
     28 H10        14.2202    7.0420    5.8678 H           1 Y27       0.0293
     29 H11        12.0964    6.6038    2.0612 H           1 Y27       0.0850
     30 H12        11.4146    8.3543    0.4864 H           1 Y27       0.0284
     31 H13        12.7024    9.4295    1.0504 H           1 Y27       0.0284
     32 H14        11.3607    8.9912    2.1292 H           1 Y27       0.0284
     33 H15        13.9854    5.9473    0.9301 H           1 Y27       0.1997
     34 H16        14.4357    7.5131    0.5606 H           1 Y27       0.1997
     35 H17        13.0806    6.8686   -0.1279 H           1 Y27       0.1997
     36 H18        17.2784    8.3651    6.0572 H           1 Y27       0.2307
     37 H19        16.6412    9.5871    9.5208 H           1 Y27       0.0596
     38 H20        18.3955    9.3967   11.1732 H           1 Y27       0.0771
     39 H21        20.9602    7.7282    8.4206 H           1 Y27       0.0771
     40 H22        19.2980    7.9118    6.6737 H           1 Y27       0.0596
@<TRIPOS>BOND
     1     1     2   2
     2     2     3   1
     3     2    12  am
     4     3     4   1
     5     3     8   1
     6     4     5   1
     7     5     6   1
     8     6     7   1
     9     6     9   1
    10     7     8   1
    11     9    10   1
    12     9    11   1
    13    12    13   1
    14    13    14  ar
    15    13    18  ar
    16    14    15  ar
    17    15    16  ar
    18    16    17  ar
    19    17    18  ar
    20     3    19   1
    21     4    20   1
    22     4    21   1
    23     5    22   1
    24     5    23   1
    25     6    24   1
    26     7    25   1
    27     7    26   1
    28     8    27   1
    29     8    28   1
    30     9    29   1
    31    10    30   1
    32    10    31   1
    33    10    32   1
    34    11    33   1
    35    11    34   1
    36    11    35   1
    37    12    36   1
    38    14    37   1
    39    15    38   1
    40    17    39   1
    41    18    40   1
@<TRIPOS>SUBSTRUCTURE
     1  Y27      2

