@<TRIPOS>MOLECULE
1q8t_ligand_031
    40    41
SMALL
GAST_HUCK
****
This file was generated by PARSER (from files_GN.cpp)

@<TRIPOS>ATOM
      1 O23        16.5789   10.9123   -2.6254 O.2         1 Y27      -0.3826
      2 C22        15.5228   10.4182   -2.2503 C.2         1 Y27       0.2105
      3 C31        14.9113   10.9095   -1.0199 C.3         1 Y27       0.0554
      4 C36        13.4692   11.4336   -1.2878 C.3         1 Y27      -0.0322
      5 C35        12.8190   11.9744    0.0097 C.3         1 Y27      -0.0428
      6 C34        12.8051   10.9407    1.1834 C.3         1 Y27       0.0020
      7 C33        14.2416   10.3718    1.4120 C.3         1 Y27      -0.0428
      8 C32        14.9057    9.8383    0.1127 C.3         1 Y27      -0.0322
      9 C41        12.1513   11.4763    2.5191 C.3         1 Y27      -0.0244
     10 C42        12.0005   13.0156    2.6590 C.3         1 Y27      -0.0215
     11 N43        10.8242   10.8745    2.7362 N.4         1 Y27       0.2207
     12 N21        14.9231    9.4411   -2.9168 N.am        1 Y27      -0.2247
     13 C14        15.2708    8.8375   -4.0831 C.ar        1 Y27       0.0867
     14 C15        14.8815    7.4891   -4.2166 C.ar        1 Y27      -0.0140
     15 C16        15.1720    6.7985   -5.4033 C.ar        1 Y27      -0.0065
     16 N11        15.8123    7.4396   -6.4122 N.ar        1 Y27      -0.3199
     17 C12        16.1935    8.7386   -6.3335 C.ar        1 Y27      -0.0065
     18 C13        15.9259    9.4724   -5.1651 C.ar        1 Y27      -0.0140
     19 H1         15.5009   11.7581   -0.6534 H           1 Y27       0.0544
     20 H2         12.8400   10.6381   -1.7016 H           1 Y27       0.0293
     21 H3         13.5062   12.2408   -2.0267 H           1 Y27       0.0293
     22 H4         11.7962   12.2780   -0.2271 H           1 Y27       0.0271
     23 H5         13.3749   12.8639    0.3198 H           1 Y27       0.0271
     24 H6         12.2071   10.0897    0.8412 H           1 Y27       0.0355
     25 H7         14.1949    9.5513    2.1337 H           1 Y27       0.0271
     26 H8         14.8749   11.1516    1.8351 H           1 Y27       0.0271
     27 H9         15.9346    9.5429    0.3386 H           1 Y27       0.0293
     28 H10        14.3705    8.9431   -0.2162 H           1 Y27       0.0293
     29 H11        12.7504   11.1501    3.3739 H           1 Y27       0.0850
     30 H12        11.5899   13.2608    3.6373 H           1 Y27       0.0284
     31 H13        11.3218   13.4141    1.9042 H           1 Y27       0.0284
     32 H14        12.9672   13.5108    2.5508 H           1 Y27       0.0284
     33 H15        10.9168    9.8582    2.7884 H           1 Y27       0.1997
     34 H16        10.2018   11.1189    1.9645 H           1 Y27       0.1997
     35 H17        10.4305   11.2188    3.6153 H           1 Y27       0.1997
     36 H18        14.1331    9.0706   -2.4942 H           1 Y27       0.2307
     37 H19        14.3963    7.0048   -3.4565 H           1 Y27       0.0596
     38 H20        14.8977    5.8209   -5.5121 H           1 Y27       0.0771
     39 H21        16.6590    9.1787   -7.1293 H           1 Y27       0.0771
     40 H22        16.1834   10.4591   -5.1291 H           1 Y27       0.0596
@<TRIPOS>BOND
     1     1     2   2
     2     2     3   1
     3     2    12  am
     4     3     4   1
     5     3     8   1
     6     4     5   1
     7     5     6   1
     8     6     7   1
     9     6     9   1
    10     7     8   1
    11     9    10   1
    12     9    11   1
    13    12    13   1
    14    13    14  ar
    15    13    18  ar
    16    14    15  ar
    17    15    16  ar
    18    16    17  ar
    19    17    18  ar
    20     3    19   1
    21     4    20   1
    22     4    21   1
    23     5    22   1
    24     5    23   1
    25     6    24   1
    26     7    25   1
    27     7    26   1
    28     8    27   1
    29     8    28   1
    30     9    29   1
    31    10    30   1
    32    10    31   1
    33    10    32   1
    34    11    33   1
    35    11    34   1
    36    11    35   1
    37    12    36   1
    38    14    37   1
    39    15    38   1
    40    17    39   1
    41    18    40   1
@<TRIPOS>SUBSTRUCTURE
     1  Y27      2

