@<TRIPOS>MOLECULE
1q8t_ligand_073
    40    41
SMALL
GAST_HUCK
****
This file was generated by PARSER (from files_GN.cpp)

@<TRIPOS>ATOM
      1 O23        20.2427   12.0740    9.7756 O.2         1 Y27      -0.3826
      2 C22        19.0311   12.0054    9.5816 C.2         1 Y27       0.2105
      3 C31        18.5716   10.9938    8.6218 C.3         1 Y27       0.0554
      4 C36        17.0244   10.8831    8.4174 C.3         1 Y27      -0.0322
      5 C35        16.6572    9.7622    7.4046 C.3         1 Y27      -0.0428
      6 C34        17.3422    9.9528    6.0120 C.3         1 Y27       0.0020
      7 C33        18.8832   10.1209    6.2064 C.3         1 Y27      -0.0428
      8 C32        19.2698   11.2097    7.2440 C.3         1 Y27      -0.0322
      9 C41        17.0535    8.8341    4.9418 C.3         1 Y27      -0.0244
     10 C42        15.6013    8.2881    4.8914 C.3         1 Y27      -0.0215
     11 N43        17.3792    9.3505    3.5984 N.4         1 Y27       0.2207
     12 N21        18.1966   12.7989   10.2511 N.am        1 Y27      -0.2247
     13 C14        18.4553   13.8265   11.1268 C.ar        1 Y27       0.0867
     14 C15        17.4584   14.0967   12.0911 C.ar        1 Y27      -0.0140
     15 C16        17.6332   15.1429   13.0170 C.ar        1 Y27      -0.0065
     16 N11        18.7483   15.9120   12.9693 N.ar        1 Y27      -0.3199
     17 C12        19.7243   15.7100   12.0455 C.ar        1 Y27      -0.0065
     18 C13        19.5950   14.6734   11.0956 C.ar        1 Y27      -0.0140
     19 H1         18.8910   10.0203    9.0126 H           1 Y27       0.0544
     20 H2         16.6242   11.8353    8.0544 H           1 Y27       0.0293
     21 H3         16.5470   10.6603    9.3784 H           1 Y27       0.0293
     22 H4         15.5712    9.7648    7.2857 H           1 Y27       0.0271
     23 H5         16.9519    8.8021    7.8269 H           1 Y27       0.0271
     24 H6         16.9549   10.8989    5.6191 H           1 Y27       0.0355
     25 H7         19.3509   10.3842    5.2548 H           1 Y27       0.0271
     26 H8         19.3202    9.1695    6.5327 H           1 Y27       0.0271
     27 H9         20.3551   11.1829    7.3719 H           1 Y27       0.0293
     28 H10        19.0026   12.1932    6.8461 H           1 Y27       0.0293
     29 H11        17.7039    7.9703    5.1240 H           1 Y27       0.0850
     30 H12        15.5067    7.5466    4.0918 H           1 Y27       0.0284
     31 H13        14.8872    9.0946    4.7043 H           1 Y27       0.0284
     32 H14        15.3423    7.7948    5.8325 H           1 Y27       0.0284
     33 H15        18.3531    9.6689    3.5747 H           1 Y27       0.1997
     34 H16        16.7466   10.1319    3.3850 H           1 Y27       0.1997
     35 H17        17.2538    8.6051    2.9056 H           1 Y27       0.1997
     36 H18        17.2503   12.6131   10.1350 H           1 Y27       0.2307
     37 H19        16.6036   13.5289   12.1425 H           1 Y27       0.0596
     38 H20        16.9213   15.3389   13.7259 H           1 Y27       0.0771
     39 H21        20.5459   16.3175   12.0314 H           1 Y27       0.0771
     40 H22        20.3146   14.5642   10.3787 H           1 Y27       0.0596
@<TRIPOS>BOND
     1     1     2   2
     2     2     3   1
     3     2    12  am
     4     3     4   1
     5     3     8   1
     6     4     5   1
     7     5     6   1
     8     6     7   1
     9     6     9   1
    10     7     8   1
    11     9    10   1
    12     9    11   1
    13    12    13   1
    14    13    14  ar
    15    13    18  ar
    16    14    15  ar
    17    15    16  ar
    18    16    17  ar
    19    17    18  ar
    20     3    19   1
    21     4    20   1
    22     4    21   1
    23     5    22   1
    24     5    23   1
    25     6    24   1
    26     7    25   1
    27     7    26   1
    28     8    27   1
    29     8    28   1
    30     9    29   1
    31    10    30   1
    32    10    31   1
    33    10    32   1
    34    11    33   1
    35    11    34   1
    36    11    35   1
    37    12    36   1
    38    14    37   1
    39    15    38   1
    40    17    39   1
    41    18    40   1
@<TRIPOS>SUBSTRUCTURE
     1  Y27      2

