@<TRIPOS>MOLECULE
1q8t_ligand_046
    40    41
SMALL
GAST_HUCK
****
This file was generated by PARSER (from files_GN.cpp)

@<TRIPOS>ATOM
      1 O23        14.1453   12.6296    0.7269 O.2         1 Y27      -0.3826
      2 C22        14.1117   11.4528    0.3920 C.2         1 Y27       0.2105
      3 C31        14.9201   11.0189   -0.7468 C.3         1 Y27       0.0554
      4 C36        15.7022    9.6970   -0.4875 C.3         1 Y27      -0.0322
      5 C35        16.5200    9.2309   -1.7195 C.3         1 Y27      -0.0428
      6 C34        15.6364    9.0928   -3.0048 C.3         1 Y27       0.0020
      7 C33        14.8514   10.4205   -3.2637 C.3         1 Y27      -0.0428
      8 C32        14.0395   10.8906   -2.0295 C.3         1 Y27      -0.0322
      9 C41        16.4743    8.5867   -4.2257 C.3         1 Y27      -0.0244
     10 C42        15.6254    8.1226   -5.4379 C.3         1 Y27      -0.0215
     11 N43        17.4455    9.5943   -4.6936 N.4         1 Y27       0.2207
     12 N21        13.4096   10.5635    1.0826 N.am        1 Y27      -0.2247
     13 C14        12.7116   10.7277    2.2436 C.ar        1 Y27       0.0867
     14 C15        12.7029    9.6227    3.1220 C.ar        1 Y27      -0.0140
     15 C16        11.9597    9.6943    4.3142 C.ar        1 Y27      -0.0065
     16 N11        11.2403   10.8079    4.5892 N.ar        1 Y27      -0.3199
     17 C12        11.2103   11.8857    3.7659 C.ar        1 Y27      -0.0065
     18 C13        11.9570   11.8722    2.5698 C.ar        1 Y27      -0.0140
     19 H1         15.6608   11.7950   -0.9561 H           1 Y27       0.0544
     20 H2         15.0190    8.8827   -0.2308 H           1 Y27       0.0293
     21 H3         16.3844    9.8366    0.3545 H           1 Y27       0.0293
     22 H4         16.9748    8.2643   -1.4896 H           1 Y27       0.0271
     23 H5         17.3271    9.9467   -1.8889 H           1 Y27       0.0271
     24 H6         14.8902    8.3157   -2.7985 H           1 Y27       0.0355
     25 H7         14.1535   10.2776   -4.0894 H           1 Y27       0.0271
     26 H8         15.5487   11.2086   -3.5458 H           1 Y27       0.0271
     27 H9         13.5935   11.8642   -2.2534 H           1 Y27       0.0293
     28 H10        13.2186   10.1848   -1.8466 H           1 Y27       0.0293
     29 H11        17.0637    7.7205   -3.8984 H           1 Y27       0.0850
     30 H12        16.2637    7.6613   -6.1879 H           1 Y27       0.0284
     31 H13        15.1210    8.9692   -5.8978 H           1 Y27       0.0284
     32 H14        14.8813    7.3925   -5.1274 H           1 Y27       0.0284
     33 H15        18.0678    9.8688   -3.9317 H           1 Y27       0.1997
     34 H16        16.9429   10.4139   -5.0330 H           1 Y27       0.1997
     35 H17        18.0057    9.2075   -5.4545 H           1 Y27       0.1997
     36 H18        13.4950    9.6417    0.7976 H           1 Y27       0.2307
     37 H19        13.2361    8.7777    2.9064 H           1 Y27       0.0596
     38 H20        11.9506    8.9046    4.9610 H           1 Y27       0.0771
     39 H21        10.6413   12.6945    4.0117 H           1 Y27       0.0771
     40 H22        11.9038   12.6753    1.9357 H           1 Y27       0.0596
@<TRIPOS>BOND
     1     1     2   2
     2     2     3   1
     3     2    12  am
     4     3     4   1
     5     3     8   1
     6     4     5   1
     7     5     6   1
     8     6     7   1
     9     6     9   1
    10     7     8   1
    11     9    10   1
    12     9    11   1
    13    12    13   1
    14    13    14  ar
    15    13    18  ar
    16    14    15  ar
    17    15    16  ar
    18    16    17  ar
    19    17    18  ar
    20     3    19   1
    21     4    20   1
    22     4    21   1
    23     5    22   1
    24     5    23   1
    25     6    24   1
    26     7    25   1
    27     7    26   1
    28     8    27   1
    29     8    28   1
    30     9    29   1
    31    10    30   1
    32    10    31   1
    33    10    32   1
    34    11    33   1
    35    11    34   1
    36    11    35   1
    37    12    36   1
    38    14    37   1
    39    15    38   1
    40    17    39   1
    41    18    40   1
@<TRIPOS>SUBSTRUCTURE
     1  Y27      2

