@<TRIPOS>MOLECULE
1q8t_ligand_080
    40    41
SMALL
GAST_HUCK
****
This file was generated by PARSER (from files_GN.cpp)

@<TRIPOS>ATOM
      1 O23        14.8211    8.5272    2.8940 O.2         1 Y27      -0.3826
      2 C22        14.4393    8.4759    1.7287 C.2         1 Y27       0.2105
      3 C31        15.3575    8.9095    0.6823 C.3         1 Y27       0.0554
      4 C36        15.8347    7.7253   -0.2105 C.3         1 Y27      -0.0322
      5 C35        16.8573    8.1945   -1.2879 C.3         1 Y27      -0.0428
      6 C34        16.2782    9.3520   -2.1709 C.3         1 Y27       0.0020
      7 C33        15.7633   10.5229   -1.2680 C.3         1 Y27      -0.0428
      8 C32        14.7598   10.0557   -0.1841 C.3         1 Y27      -0.0322
      9 C41        17.2354    9.8638   -3.3051 C.3         1 Y27      -0.0244
     10 C42        18.3354   10.8645   -2.8650 C.3         1 Y27      -0.0215
     11 N43        17.8622    8.7425   -4.0301 N.4         1 Y27       0.2207
     12 N21        13.1965    8.1177    1.4156 N.am        1 Y27      -0.2247
     13 C14        12.1552    7.7500    2.2212 C.ar        1 Y27       0.0867
     14 C15        10.8636    7.8843    1.6724 C.ar        1 Y27      -0.0140
     15 C16         9.7343    7.5493    2.4508 C.ar        1 Y27      -0.0065
     16 N11         9.8997    7.0840    3.7131 N.ar        1 Y27      -0.3199
     17 C12        11.1251    6.9160    4.2691 C.ar        1 Y27      -0.0065
     18 C13        12.2803    7.2406    3.5371 C.ar        1 Y27      -0.0140
     19 H1         16.2582    9.3229    1.1652 H           1 Y27       0.0544
     20 H2         14.9815    7.2642   -0.7184 H           1 Y27       0.0293
     21 H3         16.3039    6.9610    0.4141 H           1 Y27       0.0293
     22 H4         17.1121    7.3386   -1.9221 H           1 Y27       0.0271
     23 H5         17.7764    8.5189   -0.7908 H           1 Y27       0.0271
     24 H6         15.3962    8.9392   -2.6758 H           1 Y27       0.0355
     25 H7         15.2740   11.2777   -1.8908 H           1 Y27       0.0271
     26 H8         16.6094   10.9967   -0.7626 H           1 Y27       0.0271
     27 H9         14.5093   10.9088    0.4569 H           1 Y27       0.0293
     28 H10        13.8433    9.7302   -0.6796 H           1 Y27       0.0293
     29 H11        16.6124   10.3760   -4.0424 H           1 Y27       0.0850
     30 H12        18.9981   11.0768   -3.7060 H           1 Y27       0.0284
     31 H13        18.9288   10.4596   -2.0451 H           1 Y27       0.0284
     32 H14        17.8906   11.8127   -2.5544 H           1 Y27       0.0284
     33 H15        17.1396    8.0823   -4.3313 H           1 Y27       0.1997
     34 H16        18.5357    8.2669   -3.4306 H           1 Y27       0.1997
     35 H17        18.3456    9.1075   -4.8548 H           1 Y27       0.1997
     36 H18        12.9770    8.1705    0.4706 H           1 Y27       0.2307
     37 H19        10.7276    8.2276    0.7207 H           1 Y27       0.0596
     38 H20         8.7946    7.6504    2.0669 H           1 Y27       0.0771
     39 H21        11.2048    6.5420    5.2166 H           1 Y27       0.0771
     40 H22        13.1928    7.0729    3.9633 H           1 Y27       0.0596
@<TRIPOS>BOND
     1     1     2   2
     2     2     3   1
     3     2    12  am
     4     3     4   1
     5     3     8   1
     6     4     5   1
     7     5     6   1
     8     6     7   1
     9     6     9   1
    10     7     8   1
    11     9    10   1
    12     9    11   1
    13    12    13   1
    14    13    14  ar
    15    13    18  ar
    16    14    15  ar
    17    15    16  ar
    18    16    17  ar
    19    17    18  ar
    20     3    19   1
    21     4    20   1
    22     4    21   1
    23     5    22   1
    24     5    23   1
    25     6    24   1
    26     7    25   1
    27     7    26   1
    28     8    27   1
    29     8    28   1
    30     9    29   1
    31    10    30   1
    32    10    31   1
    33    10    32   1
    34    11    33   1
    35    11    34   1
    36    11    35   1
    37    12    36   1
    38    14    37   1
    39    15    38   1
    40    17    39   1
    41    18    40   1
@<TRIPOS>SUBSTRUCTURE
     1  Y27      2

