@<TRIPOS>MOLECULE
1q8t_ligand_085
    40    41
SMALL
GAST_HUCK
****
This file was generated by PARSER (from files_GN.cpp)

@<TRIPOS>ATOM
      1 O23        15.4323   10.7555    7.5590 O.2         1 Y27      -0.3826
      2 C22        15.9692    9.7830    7.0477 C.2         1 Y27       0.2105
      3 C31        15.2293    8.8907    6.1445 C.3         1 Y27       0.0554
      4 C36        13.6750    9.0218    6.2443 C.3         1 Y27      -0.0322
      5 C35        12.9406    8.0747    5.2599 C.3         1 Y27      -0.0428
      6 C34        13.4010    8.2796    3.7811 C.3         1 Y27       0.0020
      7 C33        14.9544    8.1494    3.6815 C.3         1 Y27      -0.0428
      8 C32        15.6993    9.0826    4.6721 C.3         1 Y27      -0.0322
      9 C41        12.6180    7.3392    2.7996 C.3         1 Y27      -0.0244
     10 C42        12.8489    7.6553    1.2993 C.3         1 Y27      -0.0215
     11 N43        12.9128    5.9163    3.0395 N.4         1 Y27       0.2207
     12 N21        17.2450    9.5098    7.3007 N.am        1 Y27      -0.2247
     13 C14        18.0545   10.1876    8.1564 C.ar        1 Y27       0.0867
     14 C15        18.3974    9.5973    9.3927 C.ar        1 Y27      -0.0140
     15 C16        19.3018   10.2554   10.2417 C.ar        1 Y27      -0.0065
     16 N11        19.8487   11.4371    9.8610 N.ar        1 Y27      -0.3199
     17 C12        19.5565   12.0283    8.6731 C.ar        1 Y27      -0.0065
     18 C13        18.6419   11.4183    7.7958 C.ar        1 Y27      -0.0140
     19 H1         15.4735    7.8623    6.4309 H           1 Y27       0.0544
     20 H2         13.3686   10.0483    6.0307 H           1 Y27       0.0293
     21 H3         13.3545    8.7762    7.2595 H           1 Y27       0.0293
     22 H4         11.8652    8.2630    5.3363 H           1 Y27       0.0271
     23 H5         13.1227    7.0409    5.5727 H           1 Y27       0.0271
     24 H6         13.1420    9.3093    3.5092 H           1 Y27       0.0355
     25 H7         15.2817    8.4043    2.6697 H           1 Y27       0.0271
     26 H8         15.2567    7.1182    3.8833 H           1 Y27       0.0271
     27 H9         16.7720    8.8835    4.5919 H           1 Y27       0.0293
     28 H10        15.5340   10.1174    4.3702 H           1 Y27       0.0293
     29 H11        11.5479    7.4736    2.9839 H           1 Y27       0.0850
     30 H12        12.1685    7.0626    0.6845 H           1 Y27       0.0284
     31 H13        13.8730    7.4197    0.9997 H           1 Y27       0.0284
     32 H14        12.6570    8.7118    1.0971 H           1 Y27       0.0284
     33 H15        12.6650    5.6650    3.9996 H           1 Y27       0.1997
     34 H16        13.9076    5.7357    2.8820 H           1 Y27       0.1997
     35 H17        12.3707    5.3448    2.3928 H           1 Y27       0.1997
     36 H18        17.5972    8.6851    6.9333 H           1 Y27       0.2307
     37 H19        17.9935    8.7025    9.6767 H           1 Y27       0.0596
     38 H20        19.5535    9.8527   11.1465 H           1 Y27       0.0771
     39 H21        20.0067   12.9101    8.4249 H           1 Y27       0.0771
     40 H22        18.4327   11.8488    6.8906 H           1 Y27       0.0596
@<TRIPOS>BOND
     1     1     2   2
     2     2     3   1
     3     2    12  am
     4     3     4   1
     5     3     8   1
     6     4     5   1
     7     5     6   1
     8     6     7   1
     9     6     9   1
    10     7     8   1
    11     9    10   1
    12     9    11   1
    13    12    13   1
    14    13    14  ar
    15    13    18  ar
    16    14    15  ar
    17    15    16  ar
    18    16    17  ar
    19    17    18  ar
    20     3    19   1
    21     4    20   1
    22     4    21   1
    23     5    22   1
    24     5    23   1
    25     6    24   1
    26     7    25   1
    27     7    26   1
    28     8    27   1
    29     8    28   1
    30     9    29   1
    31    10    30   1
    32    10    31   1
    33    10    32   1
    34    11    33   1
    35    11    34   1
    36    11    35   1
    37    12    36   1
    38    14    37   1
    39    15    38   1
    40    17    39   1
    41    18    40   1
@<TRIPOS>SUBSTRUCTURE
     1  Y27      2

