@<TRIPOS>MOLECULE
1q8t_ligand_070
    40    41
SMALL
GAST_HUCK
****
This file was generated by PARSER (from files_GN.cpp)

@<TRIPOS>ATOM
      1 O23        11.1276    7.7944    3.2215 O.2         1 Y27      -0.3826
      2 C22        11.4446    8.8854    2.7657 C.2         1 Y27       0.2105
      3 C31        12.8077    9.4100    2.9378 C.3         1 Y27       0.0554
      4 C36        13.6705    8.6835    4.0182 C.3         1 Y27      -0.0322
      5 C35        14.2705    7.3455    3.5176 C.3         1 Y27      -0.0428
      6 C34        15.1280    7.5152    2.2282 C.3         1 Y27       0.0020
      7 C33        14.2666    8.2088    1.1217 C.3         1 Y27      -0.0428
      8 C32        13.5751    9.5292    1.5801 C.3         1 Y27      -0.0322
      9 C41        16.5570    8.1385    2.4839 C.3         1 Y27      -0.0244
     10 C42        17.6727    7.4461    1.6585 C.3         1 Y27      -0.0215
     11 N43        16.6596    9.5807    2.2399 N.4         1 Y27       0.2207
     12 N21        10.5644    9.6264    2.0912 N.am        1 Y27      -0.2247
     13 C14         9.2665    9.3439    1.7689 C.ar        1 Y27       0.0867
     14 C15         8.8329    9.7040    0.4714 C.ar        1 Y27      -0.0140
     15 C16         7.5094    9.4341    0.0794 C.ar        1 Y27      -0.0065
     16 N11         6.6478    8.8619    0.9584 N.ar        1 Y27      -0.3199
     17 C12         7.0106    8.5307    2.2210 C.ar        1 Y27      -0.0065
     18 C13         8.3304    8.7717    2.6580 C.ar        1 Y27      -0.0140
     19 H1         12.6686   10.4269    3.3146 H           1 Y27       0.0544
     20 H2         13.0628    8.4916    4.9075 H           1 Y27       0.0293
     21 H3         14.4861    9.3323    4.3327 H           1 Y27       0.0293
     22 H4         13.4501    6.6494    3.3124 H           1 Y27       0.0271
     23 H5         14.8678    6.8905    4.3136 H           1 Y27       0.0271
     24 H6         15.2944    6.4868    1.8815 H           1 Y27       0.0355
     25 H7         13.4850    7.5161    0.8165 H           1 Y27       0.0271
     26 H8         14.8843    8.3928    0.2412 H           1 Y27       0.0271
     27 H9         14.3025   10.3305    1.6741 H           1 Y27       0.0293
     28 H10        12.9034    9.8569    0.7897 H           1 Y27       0.0293
     29 H11        16.8253    8.0001    3.5283 H           1 Y27       0.0850
     30 H12        18.6305    7.9466    1.8095 H           1 Y27       0.0284
     31 H13        17.4348    7.4632    0.5922 H           1 Y27       0.0284
     32 H14        17.7792    6.4105    1.9785 H           1 Y27       0.0284
     33 H15        16.0201   10.0787    2.8558 H           1 Y27       0.1997
     34 H16        16.4290    9.7957    1.2675 H           1 Y27       0.1997
     35 H17        17.6086    9.8982    2.4311 H           1 Y27       0.1997
     36 H18        10.9166   10.4403    1.7053 H           1 Y27       0.2307
     37 H19         9.4794   10.1356   -0.1969 H           1 Y27       0.0596
     38 H20         7.1899    9.6670   -0.8635 H           1 Y27       0.0771
     39 H21         6.3218    8.1115    2.8486 H           1 Y27       0.0771
     40 H22         8.5836    8.5476    3.6225 H           1 Y27       0.0596
@<TRIPOS>BOND
     1     1     2   2
     2     2     3   1
     3     2    12  am
     4     3     4   1
     5     3     8   1
     6     4     5   1
     7     5     6   1
     8     6     7   1
     9     6     9   1
    10     7     8   1
    11     9    10   1
    12     9    11   1
    13    12    13   1
    14    13    14  ar
    15    13    18  ar
    16    14    15  ar
    17    15    16  ar
    18    16    17  ar
    19    17    18  ar
    20     3    19   1
    21     4    20   1
    22     4    21   1
    23     5    22   1
    24     5    23   1
    25     6    24   1
    26     7    25   1
    27     7    26   1
    28     8    27   1
    29     8    28   1
    30     9    29   1
    31    10    30   1
    32    10    31   1
    33    10    32   1
    34    11    33   1
    35    11    34   1
    36    11    35   1
    37    12    36   1
    38    14    37   1
    39    15    38   1
    40    17    39   1
    41    18    40   1
@<TRIPOS>SUBSTRUCTURE
     1  Y27      2

