@<TRIPOS>MOLECULE
1q8t_ligand_017
    40    41
SMALL
GAST_HUCK
****
This file was generated by PARSER (from files_GN.cpp)

@<TRIPOS>ATOM
      1 O23        11.0403   10.0549   -0.9669 O.2         1 Y27      -0.3826
      2 C22        11.6881   10.0941    0.0759 C.2         1 Y27       0.2105
      3 C31        11.1958    9.3621    1.2533 C.3         1 Y27       0.0554
      4 C36        12.0131    8.0705    1.5624 C.3         1 Y27      -0.0322
      5 C35        13.3293    8.3439    2.3349 C.3         1 Y27      -0.0428
      6 C34        13.0969    9.0907    3.6889 C.3         1 Y27       0.0020
      7 C33        12.3177   10.4196    3.4024 C.3         1 Y27      -0.0428
      8 C32        11.0295   10.2361    2.5433 C.3         1 Y27      -0.0322
      9 C41        12.4496    8.2325    4.8381 C.3         1 Y27      -0.0244
     10 C42        13.0403    6.8079    5.0170 C.3         1 Y27      -0.0215
     11 N43        12.6046    8.9127    6.1387 N.4         1 Y27       0.2207
     12 N21        12.7773   10.8477    0.1515 N.am        1 Y27      -0.2247
     13 C14        13.2423   11.7100   -0.7878 C.ar        1 Y27       0.0867
     14 C15        13.1404   13.0975   -0.5511 C.ar        1 Y27      -0.0140
     15 C16        13.7350   13.9944   -1.4567 C.ar        1 Y27      -0.0065
     16 N11        14.4110   13.5168   -2.5321 N.ar        1 Y27      -0.3199
     17 C12        14.5347   12.1874   -2.7865 C.ar        1 Y27      -0.0065
     18 C13        13.9483   11.2486   -1.9176 C.ar        1 Y27      -0.0140
     19 H1         10.1850    9.0138    1.0037 H           1 Y27       0.0544
     20 H2         12.2423    7.5398    0.6344 H           1 Y27       0.0293
     21 H3         11.3949    7.3975    2.1641 H           1 Y27       0.0293
     22 H4         13.9916    8.9421    1.7045 H           1 Y27       0.0271
     23 H5         13.8506    7.3998    2.4987 H           1 Y27       0.0271
     24 H6         14.0910    9.3764    4.0491 H           1 Y27       0.0355
     25 H7         12.9871   11.1148    2.8952 H           1 Y27       0.0271
     26 H8         12.0432   10.9124    4.3378 H           1 Y27       0.0271
     27 H9         10.2711    9.7717    3.1794 H           1 Y27       0.0293
     28 H10        10.6435   11.2221    2.2706 H           1 Y27       0.0293
     29 H11        11.3786    8.1246    4.6547 H           1 Y27       0.0850
     30 H12        12.6432    6.3361    5.9191 H           1 Y27       0.0284
     31 H13        14.1281    6.8525    5.0993 H           1 Y27       0.0284
     32 H14        12.7733    6.1702    4.1734 H           1 Y27       0.0284
     33 H15        12.1713    9.8363    6.1149 H           1 Y27       0.1997
     34 H16        13.5981    9.0076    6.3625 H           1 Y27       0.1997
     35 H17        12.1420    8.3545    6.8579 H           1 Y27       0.1997
     36 H18        13.2255   10.8854    1.0039 H           1 Y27       0.2307
     37 H19        12.6435   13.4544    0.2692 H           1 Y27       0.0596
     38 H20        13.6758   15.0033   -1.3014 H           1 Y27       0.0771
     39 H21        15.0691   11.8773   -3.5993 H           1 Y27       0.0771
     40 H22        14.0621   10.2468   -2.0911 H           1 Y27       0.0596
@<TRIPOS>BOND
     1     1     2   2
     2     2     3   1
     3     2    12  am
     4     3     4   1
     5     3     8   1
     6     4     5   1
     7     5     6   1
     8     6     7   1
     9     6     9   1
    10     7     8   1
    11     9    10   1
    12     9    11   1
    13    12    13   1
    14    13    14  ar
    15    13    18  ar
    16    14    15  ar
    17    15    16  ar
    18    16    17  ar
    19    17    18  ar
    20     3    19   1
    21     4    20   1
    22     4    21   1
    23     5    22   1
    24     5    23   1
    25     6    24   1
    26     7    25   1
    27     7    26   1
    28     8    27   1
    29     8    28   1
    30     9    29   1
    31    10    30   1
    32    10    31   1
    33    10    32   1
    34    11    33   1
    35    11    34   1
    36    11    35   1
    37    12    36   1
    38    14    37   1
    39    15    38   1
    40    17    39   1
    41    18    40   1
@<TRIPOS>SUBSTRUCTURE
     1  Y27      2

