@<TRIPOS>MOLECULE
1q8t_ligand_056
    40    41
SMALL
GAST_HUCK
****
This file was generated by PARSER (from files_GN.cpp)

@<TRIPOS>ATOM
      1 O23         7.3152   11.1142    0.6759 O.2         1 Y27      -0.3826
      2 C22         7.4335   10.0953    1.3407 C.2         1 Y27       0.2105
      3 C31         6.1918    9.5172    1.8757 C.3         1 Y27       0.0554
      4 C36         6.3256    8.2748    2.8210 C.3         1 Y27      -0.0322
      5 C35         6.7632    8.6238    4.2737 C.3         1 Y27      -0.0428
      6 C34         5.9113    9.7413    4.9645 C.3         1 Y27       0.0020
      7 C33         5.7805   10.9560    3.9962 C.3         1 Y27      -0.0428
      8 C32         5.2857   10.5835    2.5756 C.3         1 Y27      -0.0322
      9 C41         4.5974    9.2268    5.6646 C.3         1 Y27      -0.0244
     10 C42         3.8318   10.3141    6.4633 C.3         1 Y27      -0.0215
     11 N43         3.6178    8.5470    4.8083 N.4         1 Y27       0.2207
     12 N21         8.6116    9.4782    1.4363 N.am        1 Y27      -0.2247
     13 C14         9.8515    9.7936    0.9433 C.ar        1 Y27       0.0867
     14 C15        10.1735   10.8822    0.0969 C.ar        1 Y27      -0.0140
     15 C16        11.5102   11.1065   -0.2795 C.ar        1 Y27      -0.0065
     16 N11        12.4893   10.2726    0.1556 N.ar        1 Y27      -0.3199
     17 C12        12.2247    9.2116    0.9533 C.ar        1 Y27      -0.0065
     18 C13        10.9063    8.9470    1.3653 C.ar        1 Y27      -0.0140
     19 H1          5.6437    9.1636    0.9964 H           1 Y27       0.0544
     20 H2          7.0276    7.5536    2.3995 H           1 Y27       0.0293
     21 H3          5.3636    7.7636    2.8566 H           1 Y27       0.0293
     22 H4          7.8060    8.9584    4.2393 H           1 Y27       0.0271
     23 H5          6.7494    7.7184    4.8804 H           1 Y27       0.0271
     24 H6          6.5311   10.1017    5.7940 H           1 Y27       0.0355
     25 H7          6.7701   11.4109    3.8906 H           1 Y27       0.0271
     26 H8          5.1268   11.7215    4.4162 H           1 Y27       0.0271
     27 H9          4.2671   10.1927    2.6451 H           1 Y27       0.0293
     28 H10         5.2238   11.4954    1.9743 H           1 Y27       0.0293
     29 H11         4.9100    8.4763    6.3981 H           1 Y27       0.0850
     30 H12         3.0274    9.8570    7.0427 H           1 Y27       0.0284
     31 H13         3.3864   11.0535    5.7935 H           1 Y27       0.0284
     32 H14         4.5054   10.8218    7.1576 H           1 Y27       0.0284
     33 H15         4.0499    7.7567    4.3301 H           1 Y27       0.1997
     34 H16         3.2345    9.2012    4.1228 H           1 Y27       0.1997
     35 H17         2.8626    8.1921    5.4039 H           1 Y27       0.1997
     36 H18         8.5886    8.6348    1.9141 H           1 Y27       0.2307
     37 H19         9.4668   11.5363   -0.2390 H           1 Y27       0.0596
     38 H20        11.7552   11.9009   -0.8729 H           1 Y27       0.0771
     39 H21        12.9906    8.6053    1.2555 H           1 Y27       0.0771
     40 H22        10.7225    8.1433    1.9718 H           1 Y27       0.0596
@<TRIPOS>BOND
     1     1     2   2
     2     2     3   1
     3     2    12  am
     4     3     4   1
     5     3     8   1
     6     4     5   1
     7     5     6   1
     8     6     7   1
     9     6     9   1
    10     7     8   1
    11     9    10   1
    12     9    11   1
    13    12    13   1
    14    13    14  ar
    15    13    18  ar
    16    14    15  ar
    17    15    16  ar
    18    16    17  ar
    19    17    18  ar
    20     3    19   1
    21     4    20   1
    22     4    21   1
    23     5    22   1
    24     5    23   1
    25     6    24   1
    26     7    25   1
    27     7    26   1
    28     8    27   1
    29     8    28   1
    30     9    29   1
    31    10    30   1
    32    10    31   1
    33    10    32   1
    34    11    33   1
    35    11    34   1
    36    11    35   1
    37    12    36   1
    38    14    37   1
    39    15    38   1
    40    17    39   1
    41    18    40   1
@<TRIPOS>SUBSTRUCTURE
     1  Y27      2

