@<TRIPOS>MOLECULE
1q8t_ligand_045
    40    41
SMALL
GAST_HUCK
****
This file was generated by PARSER (from files_GN.cpp)

@<TRIPOS>ATOM
      1 O23        17.7778    6.2541    4.7216 O.2         1 Y27      -0.3826
      2 C22        17.2009    7.2964    4.4223 C.2         1 Y27       0.2105
      3 C31        16.4161    7.2878    3.1775 C.3         1 Y27       0.0554
      4 C36        15.3623    6.1338    3.1127 C.3         1 Y27      -0.0322
      5 C35        14.0506    6.4340    3.8915 C.3         1 Y27      -0.0428
      6 C34        13.3818    7.7985    3.5241 C.3         1 Y27       0.0020
      7 C33        14.4413    8.9468    3.5649 C.3         1 Y27      -0.0428
      8 C32        15.7447    8.6443    2.7731 C.3         1 Y27      -0.0322
      9 C41        12.4525    7.7348    2.2479 C.3         1 Y27      -0.0244
     10 C42        11.7196    9.0585    1.9272 C.3         1 Y27      -0.0215
     11 N43        13.1241    7.2544    1.0350 N.4         1 Y27       0.2207
     12 N21        17.3537    8.3733    5.1813 N.am        1 Y27      -0.2247
     13 C14        18.2131    8.5865    6.2292 C.ar        1 Y27       0.0867
     14 C15        17.8278    9.5289    7.2097 C.ar        1 Y27      -0.0140
     15 C16        18.6931    9.8212    8.2806 C.ar        1 Y27      -0.0065
     16 N11        19.9086    9.2207    8.3521 N.ar        1 Y27      -0.3199
     17 C12        20.3322    8.3308    7.4191 C.ar        1 Y27      -0.0065
     18 C13        19.5000    8.0024    6.3318 C.ar        1 Y27      -0.0140
     19 H1         17.1496    7.0764    2.3929 H           1 Y27       0.0544
     20 H2         15.7934    5.1999    3.4982 H           1 Y27       0.0293
     21 H3         15.1254    5.9406    2.0714 H           1 Y27       0.0293
     22 H4         14.2843    6.4339    4.9601 H           1 Y27       0.0271
     23 H5         13.3472    5.6172    3.7181 H           1 Y27       0.0271
     24 H6         12.6873    8.0116    4.3432 H           1 Y27       0.0355
     25 H7         14.7115    9.1237    4.6090 H           1 Y27       0.0271
     26 H8         14.0113    9.8760    3.2017 H           1 Y27       0.0271
     27 H9         15.5099    8.6285    1.7110 H           1 Y27       0.0293
     28 H10        16.4506    9.4707    2.9095 H           1 Y27       0.0293
     29 H11        11.6728    7.0002    2.4549 H           1 Y27       0.0850
     30 H12        10.9328    8.8883    1.1852 H           1 Y27       0.0284
     31 H13        12.4105    9.7985    1.5232 H           1 Y27       0.0284
     32 H14        11.2526    9.4628    2.8265 H           1 Y27       0.0284
     33 H15        13.2704    6.2472    1.1088 H           1 Y27       0.1997
     34 H16        14.0248    7.7163    0.9185 H           1 Y27       0.1997
     35 H17        12.5626    7.4395    0.2131 H           1 Y27       0.1997
     36 H18        16.7870    9.1316    4.9747 H           1 Y27       0.2307
     37 H19        16.9198   10.0010    7.1539 H           1 Y27       0.0596
     38 H20        18.4198   10.4897    9.0014 H           1 Y27       0.0771
     39 H21        21.2611    7.9143    7.5002 H           1 Y27       0.0771
     40 H22        19.8543    7.3676    5.6114 H           1 Y27       0.0596
@<TRIPOS>BOND
     1     1     2   2
     2     2     3   1
     3     2    12  am
     4     3     4   1
     5     3     8   1
     6     4     5   1
     7     5     6   1
     8     6     7   1
     9     6     9   1
    10     7     8   1
    11     9    10   1
    12     9    11   1
    13    12    13   1
    14    13    14  ar
    15    13    18  ar
    16    14    15  ar
    17    15    16  ar
    18    16    17  ar
    19    17    18  ar
    20     3    19   1
    21     4    20   1
    22     4    21   1
    23     5    22   1
    24     5    23   1
    25     6    24   1
    26     7    25   1
    27     7    26   1
    28     8    27   1
    29     8    28   1
    30     9    29   1
    31    10    30   1
    32    10    31   1
    33    10    32   1
    34    11    33   1
    35    11    34   1
    36    11    35   1
    37    12    36   1
    38    14    37   1
    39    15    38   1
    40    17    39   1
    41    18    40   1
@<TRIPOS>SUBSTRUCTURE
     1  Y27      2

