@<TRIPOS>MOLECULE
1q8t_ligand_013
    40    41
SMALL
GAST_HUCK
****
This file was generated by PARSER (from files_GN.cpp)

@<TRIPOS>ATOM
      1 O23        16.9822   10.6492   -0.0835 O.2         1 Y27      -0.3826
      2 C22        16.7158    9.9217   -1.0334 C.2         1 Y27       0.2105
      3 C31        16.7635   10.5099   -2.3647 C.3         1 Y27       0.0554
      4 C36        18.0094    9.9990   -3.1636 C.3         1 Y27      -0.0322
      5 C35        17.7718    8.6508   -3.8905 C.3         1 Y27      -0.0428
      6 C34        16.5598    8.6673   -4.8664 C.3         1 Y27       0.0020
      7 C33        15.2867    9.0836   -4.0454 C.3         1 Y27      -0.0428
      8 C32        15.4410   10.3919   -3.2118 C.3         1 Y27      -0.0322
      9 C41        16.8325    9.3502   -6.2755 C.3         1 Y27      -0.0244
     10 C42        15.7903   10.3685   -6.7996 C.3         1 Y27      -0.0215
     11 N43        18.1515    9.9966   -6.4504 N.4         1 Y27       0.2207
     12 N21        16.4380    8.6371   -0.8583 N.am        1 Y27      -0.2247
     13 C14        16.4488    7.9024    0.2875 C.ar        1 Y27       0.0867
     14 C15        15.3474    7.0599    0.5255 C.ar        1 Y27      -0.0140
     15 C16        15.3093    6.2808    1.6924 C.ar        1 Y27      -0.0065
     16 N11        16.3558    6.3064    2.5606 N.ar        1 Y27      -0.3199
     17 C12        17.4567    7.0772    2.3447 C.ar        1 Y27      -0.0065
     18 C13        17.5292    7.8909    1.2002 C.ar        1 Y27      -0.0140
     19 H1         16.9175   11.5944   -2.2393 H           1 Y27       0.0544
     20 H2         18.8691    9.9020   -2.4862 H           1 Y27       0.0293
     21 H3         18.2936   10.7684   -3.8857 H           1 Y27       0.0293
     22 H4         17.6111    7.8737   -3.1345 H           1 Y27       0.0271
     23 H5         18.6854    8.3634   -4.4119 H           1 Y27       0.0271
     24 H6         16.3840    7.6127   -5.1056 H           1 Y27       0.0355
     25 H7         15.0447    8.2696   -3.3605 H           1 Y27       0.0271
     26 H8         14.4222    9.1769   -4.7088 H           1 Y27       0.0271
     27 H9         15.4092   11.2391   -3.9057 H           1 Y27       0.0293
     28 H10        14.5717   10.4842   -2.5525 H           1 Y27       0.0293
     29 H11        16.8409    8.5586   -7.0211 H           1 Y27       0.0850
     30 H12        16.0580   10.7079   -7.8085 H           1 Y27       0.0284
     31 H13        15.7387   11.2527   -6.1587 H           1 Y27       0.0284
     32 H14        14.8004    9.9073   -6.8735 H           1 Y27       0.0284
     33 H15        18.9255    9.3933   -6.1507 H           1 Y27       0.1997
     34 H16        18.1847   10.8607   -5.9112 H           1 Y27       0.1997
     35 H17        18.2954   10.2246   -7.4414 H           1 Y27       0.1997
     36 H18        16.1123    8.1715   -1.6446 H           1 Y27       0.2307
     37 H19        14.5594    7.0170   -0.1242 H           1 Y27       0.0596
     38 H20        14.5119    5.6793    1.9015 H           1 Y27       0.0771
     39 H21        18.2316    7.0547    3.0118 H           1 Y27       0.0771
     40 H22        18.3709    8.4431    1.0258 H           1 Y27       0.0596
@<TRIPOS>BOND
     1     1     2   2
     2     2     3   1
     3     2    12  am
     4     3     4   1
     5     3     8   1
     6     4     5   1
     7     5     6   1
     8     6     7   1
     9     6     9   1
    10     7     8   1
    11     9    10   1
    12     9    11   1
    13    12    13   1
    14    13    14  ar
    15    13    18  ar
    16    14    15  ar
    17    15    16  ar
    18    16    17  ar
    19    17    18  ar
    20     3    19   1
    21     4    20   1
    22     4    21   1
    23     5    22   1
    24     5    23   1
    25     6    24   1
    26     7    25   1
    27     7    26   1
    28     8    27   1
    29     8    28   1
    30     9    29   1
    31    10    30   1
    32    10    31   1
    33    10    32   1
    34    11    33   1
    35    11    34   1
    36    11    35   1
    37    12    36   1
    38    14    37   1
    39    15    38   1
    40    17    39   1
    41    18    40   1
@<TRIPOS>SUBSTRUCTURE
     1  Y27      2

