@<TRIPOS>MOLECULE
1q8t_ligand_055
    40    41
SMALL
GAST_HUCK
****
This file was generated by PARSER (from files_GN.cpp)

@<TRIPOS>ATOM
      1 O23        10.2228   10.5894    3.1951 O.2         1 Y27      -0.3826
      2 C22         9.5068   10.5329    2.1990 C.2         1 Y27       0.2105
      3 C31         8.0879   10.2311    2.3960 C.3         1 Y27       0.0554
      4 C36         7.1319   11.0160    1.4447 C.3         1 Y27      -0.0322
      5 C35         5.6498   10.7282    1.7976 C.3         1 Y27      -0.0428
      6 C34         5.3233    9.2050    1.6625 C.3         1 Y27       0.0020
      7 C33         6.2960    8.3850    2.5695 C.3         1 Y27      -0.0428
      8 C32         7.7923    8.7043    2.2909 C.3         1 Y27      -0.0322
      9 C41         3.8117    8.8352    1.8708 C.3         1 Y27      -0.0244
     10 C42         3.3311    8.6999    3.3374 C.3         1 Y27      -0.0215
     11 N43         2.9329    9.7978    1.1841 N.4         1 Y27       0.2207
     12 N21        10.0243   10.6605    0.9808 N.am        1 Y27      -0.2247
     13 C14        11.2915   11.0275    0.6158 C.ar        1 Y27       0.0867
     14 C15        12.0832   11.9671    1.3203 C.ar        1 Y27      -0.0140
     15 C16        13.3546   12.3152    0.8252 C.ar        1 Y27      -0.0065
     16 N11        13.8107   11.7563   -0.3242 N.ar        1 Y27      -0.3199
     17 C12        13.0785   10.8642   -1.0370 C.ar        1 Y27      -0.0065
     18 C13        11.7971   10.4939   -0.5892 C.ar        1 Y27      -0.0140
     19 H1          7.8250   10.5441    3.4140 H           1 Y27       0.0544
     20 H2          7.3130   10.7300    0.4034 H           1 Y27       0.0293
     21 H3          7.3106   12.0884    1.5259 H           1 Y27       0.0293
     22 H4          5.0239   11.3205    1.1271 H           1 Y27       0.0271
     23 H5          5.4495   11.0630    2.8191 H           1 Y27       0.0271
     24 H6          5.5509    8.9265    0.6268 H           1 Y27       0.0355
     25 H7          6.1281    7.3187    2.4113 H           1 Y27       0.0271
     26 H8          6.0912    8.6019    3.6230 H           1 Y27       0.0271
     27 H9          8.4034    8.1590    3.0162 H           1 Y27       0.0293
     28 H10         8.0553    8.3472    1.2910 H           1 Y27       0.0293
     29 H11         3.6364    7.8666    1.3916 H           1 Y27       0.0850
     30 H12         2.2567    8.5184    3.3508 H           1 Y27       0.0284
     31 H13         3.5409    9.6097    3.9022 H           1 Y27       0.0284
     32 H14         3.8156    7.8526    3.8284 H           1 Y27       0.0284
     33 H15         3.1920    9.8655    0.1971 H           1 Y27       0.1997
     34 H16         3.0271   10.7185    1.6206 H           1 Y27       0.1997
     35 H17         1.9606    9.5073    1.2665 H           1 Y27       0.1997
     36 H18         9.4252   10.4648    0.2440 H           1 Y27       0.2307
     37 H19        11.7347   12.4253    2.1653 H           1 Y27       0.0596
     38 H20        13.9376   12.9926    1.3189 H           1 Y27       0.0771
     39 H21        13.4596   10.4624   -1.8958 H           1 Y27       0.0771
     40 H22        11.2412    9.8325   -1.1360 H           1 Y27       0.0596
@<TRIPOS>BOND
     1     1     2   2
     2     2     3   1
     3     2    12  am
     4     3     4   1
     5     3     8   1
     6     4     5   1
     7     5     6   1
     8     6     7   1
     9     6     9   1
    10     7     8   1
    11     9    10   1
    12     9    11   1
    13    12    13   1
    14    13    14  ar
    15    13    18  ar
    16    14    15  ar
    17    15    16  ar
    18    16    17  ar
    19    17    18  ar
    20     3    19   1
    21     4    20   1
    22     4    21   1
    23     5    22   1
    24     5    23   1
    25     6    24   1
    26     7    25   1
    27     7    26   1
    28     8    27   1
    29     8    28   1
    30     9    29   1
    31    10    30   1
    32    10    31   1
    33    10    32   1
    34    11    33   1
    35    11    34   1
    36    11    35   1
    37    12    36   1
    38    14    37   1
    39    15    38   1
    40    17    39   1
    41    18    40   1
@<TRIPOS>SUBSTRUCTURE
     1  Y27      2

