@<TRIPOS>MOLECULE
1q8t_ligand_023
    40    41
SMALL
GAST_HUCK
****
This file was generated by PARSER (from files_GN.cpp)

@<TRIPOS>ATOM
      1 O23        13.3458   10.1116    1.3027 O.2         1 Y27      -0.3826
      2 C22        13.4999    9.5585    2.3851 C.2         1 Y27       0.2105
      3 C31        12.3853    9.5202    3.3330 C.3         1 Y27       0.0554
      4 C36        11.6526   10.8904    3.4820 C.3         1 Y27      -0.0322
      5 C35        10.4538   10.7962    4.4615 C.3         1 Y27      -0.0428
      6 C34         9.4355    9.6788    4.0684 C.3         1 Y27       0.0020
      7 C33        10.1789    8.3135    3.9120 C.3         1 Y27      -0.0428
      8 C32        11.3766    8.4027    2.9314 C.3         1 Y27      -0.0322
      9 C41         8.1959    9.6489    5.0336 C.3         1 Y27      -0.0244
     10 C42         7.1732    8.5152    4.7549 C.3         1 Y27      -0.0215
     11 N43         8.5613    9.5883    6.4608 N.4         1 Y27       0.2207
     12 N21        14.5772    8.8182    2.6334 N.am        1 Y27      -0.2247
     13 C14        15.7198    8.6403    1.9050 C.ar        1 Y27       0.0867
     14 C15        16.2363    9.5543    0.9515 C.ar        1 Y27      -0.0140
     15 C16        17.4551    9.2670    0.3060 C.ar        1 Y27      -0.0065
     16 N11        18.1257    8.1218    0.5985 N.ar        1 Y27      -0.3199
     17 C12        17.6702    7.2303    1.5112 C.ar        1 Y27      -0.0065
     18 C13        16.4599    7.4710    2.1866 C.ar        1 Y27      -0.0140
     19 H1         12.7878    9.2669    4.3243 H           1 Y27       0.0544
     20 H2         11.2800   11.2303    2.5126 H           1 Y27       0.0293
     21 H3         12.3576   11.6395    3.8532 H           1 Y27       0.0293
     22 H4          9.9452   11.7624    4.4914 H           1 Y27       0.0271
     23 H5         10.8479   10.5953    5.4623 H           1 Y27       0.0271
     24 H6          9.0440    9.9404    3.0800 H           1 Y27       0.0355
     25 H7          9.4944    7.5594    3.5152 H           1 Y27       0.0271
     26 H8         10.5332    7.9701    4.8874 H           1 Y27       0.0271
     27 H9         11.8865    7.4365    2.9112 H           1 Y27       0.0293
     28 H10        10.9928    8.5942    1.9223 H           1 Y27       0.0293
     29 H11         7.6616   10.5943    4.8948 H           1 Y27       0.0850
     30 H12         6.2539    8.6938    5.3188 H           1 Y27       0.0284
     31 H13         7.5755    7.5462    5.0579 H           1 Y27       0.0284
     32 H14         6.9217    8.4779    3.6944 H           1 Y27       0.0284
     33 H15         9.1188   10.4074    6.7130 H           1 Y27       0.1997
     34 H16         9.0953    8.7392    6.6512 H           1 Y27       0.1997
     35 H17         7.7079    9.5820    7.0250 H           1 Y27       0.1997
     36 H18        14.5244    8.2732    3.4373 H           1 Y27       0.2307
     37 H19        15.7622   10.4325    0.7420 H           1 Y27       0.0596
     38 H20        17.8376    9.9218   -0.3768 H           1 Y27       0.0771
     39 H21        18.2083    6.3842    1.7012 H           1 Y27       0.0771
     40 H22        16.1280    6.7847    2.8729 H           1 Y27       0.0596
@<TRIPOS>BOND
     1     1     2   2
     2     2     3   1
     3     2    12  am
     4     3     4   1
     5     3     8   1
     6     4     5   1
     7     5     6   1
     8     6     7   1
     9     6     9   1
    10     7     8   1
    11     9    10   1
    12     9    11   1
    13    12    13   1
    14    13    14  ar
    15    13    18  ar
    16    14    15  ar
    17    15    16  ar
    18    16    17  ar
    19    17    18  ar
    20     3    19   1
    21     4    20   1
    22     4    21   1
    23     5    22   1
    24     5    23   1
    25     6    24   1
    26     7    25   1
    27     7    26   1
    28     8    27   1
    29     8    28   1
    30     9    29   1
    31    10    30   1
    32    10    31   1
    33    10    32   1
    34    11    33   1
    35    11    34   1
    36    11    35   1
    37    12    36   1
    38    14    37   1
    39    15    38   1
    40    17    39   1
    41    18    40   1
@<TRIPOS>SUBSTRUCTURE
     1  Y27      2

