@<TRIPOS>MOLECULE
1q8t_ligand_054
    40    41
SMALL
GAST_HUCK
****
This file was generated by PARSER (from files_GN.cpp)

@<TRIPOS>ATOM
      1 O23        14.7807   10.0896    1.3074 O.2         1 Y27      -0.3826
      2 C22        14.9653    9.2086    2.1432 C.2         1 Y27       0.2105
      3 C31        13.8133    8.5014    2.7042 C.3         1 Y27       0.0554
      4 C36        13.0571    9.3666    3.7572 C.3         1 Y27      -0.0322
      5 C35        11.8539    8.5996    4.3758 C.3         1 Y27      -0.0428
      6 C34        10.8463    8.0496    3.3100 C.3         1 Y27       0.0020
      7 C33        11.6294    7.2197    2.2433 C.3         1 Y27      -0.0428
      8 C32        12.8201    7.9943    1.6155 C.3         1 Y27      -0.0322
      9 C41         9.6458    7.2703    3.9785 C.3         1 Y27      -0.0244
     10 C42         8.3995    8.1616    4.2252 C.3         1 Y27      -0.0215
     11 N43         9.1872    6.0847    3.2298 N.4         1 Y27       0.2207
     12 N21        16.1865    8.9462    2.5908 N.am        1 Y27      -0.2247
     13 C14        17.3290    9.5548    2.1833 C.ar        1 Y27       0.0867
     14 C15        17.8728   10.5882    2.9719 C.ar        1 Y27      -0.0140
     15 C16        19.1029   11.1573    2.6016 C.ar        1 Y27      -0.0065
     16 N11        19.7652   10.6877    1.5121 N.ar        1 Y27      -0.3199
     17 C12        19.2781    9.6795    0.7396 C.ar        1 Y27      -0.0065
     18 C13        18.0382    9.0934    1.0537 C.ar        1 Y27      -0.0140
     19 H1         14.1878    7.6114    3.2278 H           1 Y27       0.0544
     20 H2         12.7013   10.2935    3.2973 H           1 Y27       0.0293
     21 H3         13.7495    9.6389    4.5596 H           1 Y27       0.0293
     22 H4         11.3299    9.2665    5.0653 H           1 Y27       0.0271
     23 H5         12.2456    7.7629    4.9623 H           1 Y27       0.0271
     24 H6         10.4339    8.9157    2.7819 H           1 Y27       0.0355
     25 H7         10.9480    6.9379    1.4361 H           1 Y27       0.0271
     26 H8         12.0042    6.2993    2.7030 H           1 Y27       0.0271
     27 H9         13.3389    7.3296    0.9198 H           1 Y27       0.0293
     28 H10        12.4298    8.8392    1.0401 H           1 Y27       0.0293
     29 H11         9.9656    6.8801    4.9486 H           1 Y27       0.0850
     30 H12         7.6394    7.6125    4.7882 H           1 Y27       0.0284
     31 H13         7.9622    8.4736    3.2731 H           1 Y27       0.0284
     32 H14         8.6705    9.0520    4.7952 H           1 Y27       0.0284
     33 H15         9.9566    5.4210    3.1542 H           1 Y27       0.1997
     34 H16         8.8522    6.3443    2.2981 H           1 Y27       0.1997
     35 H17         8.4325    5.6354    3.7468 H           1 Y27       0.1997
     36 H18        16.2768    8.3159    3.3244 H           1 Y27       0.2307
     37 H19        17.3846   10.9215    3.8054 H           1 Y27       0.0596
     38 H20        19.5212   11.8984    3.1671 H           1 Y27       0.0771
     39 H21        19.8242    9.3371   -0.0554 H           1 Y27       0.0771
     40 H22        17.6774    8.3236    0.4824 H           1 Y27       0.0596
@<TRIPOS>BOND
     1     1     2   2
     2     2     3   1
     3     2    12  am
     4     3     4   1
     5     3     8   1
     6     4     5   1
     7     5     6   1
     8     6     7   1
     9     6     9   1
    10     7     8   1
    11     9    10   1
    12     9    11   1
    13    12    13   1
    14    13    14  ar
    15    13    18  ar
    16    14    15  ar
    17    15    16  ar
    18    16    17  ar
    19    17    18  ar
    20     3    19   1
    21     4    20   1
    22     4    21   1
    23     5    22   1
    24     5    23   1
    25     6    24   1
    26     7    25   1
    27     7    26   1
    28     8    27   1
    29     8    28   1
    30     9    29   1
    31    10    30   1
    32    10    31   1
    33    10    32   1
    34    11    33   1
    35    11    34   1
    36    11    35   1
    37    12    36   1
    38    14    37   1
    39    15    38   1
    40    17    39   1
    41    18    40   1
@<TRIPOS>SUBSTRUCTURE
     1  Y27      2

