@<TRIPOS>MOLECULE
1q8t_ligand_022
    40    41
SMALL
GAST_HUCK
****
This file was generated by PARSER (from files_GN.cpp)

@<TRIPOS>ATOM
      1 O23        16.0800    6.9550    4.5755 O.2         1 Y27      -0.3826
      2 C22        15.8303    8.1141    4.2751 C.2         1 Y27       0.2105
      3 C31        14.6313    8.4368    3.4880 C.3         1 Y27       0.0554
      4 C36        13.9795    7.2449    2.7100 C.3         1 Y27      -0.0322
      5 C35        13.1311    6.3075    3.6135 C.3         1 Y27      -0.0428
      6 C34        12.0548    7.0495    4.4744 C.3         1 Y27       0.0020
      7 C33        12.7368    8.2216    5.2554 C.3         1 Y27      -0.0428
      8 C32        13.5500    9.1769    4.3378 C.3         1 Y27      -0.0322
      9 C41        10.7196    7.5040    3.7529 C.3         1 Y27      -0.0244
     10 C42        10.4756    7.0134    2.2971 C.3         1 Y27      -0.0215
     11 N43         9.5635    7.0420    4.5483 N.4         1 Y27       0.2207
     12 N21        16.6205    9.1237    4.6213 N.am        1 Y27      -0.2247
     13 C14        17.8449    9.1705    5.2264 C.ar        1 Y27       0.0867
     14 C15        18.3355   10.4705    5.4841 C.ar        1 Y27      -0.0140
     15 C16        19.6175   10.6432    6.0389 C.ar        1 Y27      -0.0065
     16 N11        20.3802    9.5595    6.3301 N.ar        1 Y27      -0.3199
     17 C12        19.9440    8.2937    6.1158 C.ar        1 Y27      -0.0065
     18 C13        18.6712    8.0668    5.5590 C.ar        1 Y27      -0.0140
     19 H1         14.9616    9.1322    2.7045 H           1 Y27       0.0544
     20 H2         14.7614    6.6500    2.2167 H           1 Y27       0.0293
     21 H3         13.3427    7.6519    1.9172 H           1 Y27       0.0293
     22 H4         13.8111    5.7866    4.2943 H           1 Y27       0.0271
     23 H5         12.6637    5.5343    3.0019 H           1 Y27       0.0271
     24 H6         11.7732    6.3189    5.2412 H           1 Y27       0.0355
     25 H7         13.4135    7.8084    6.0111 H           1 Y27       0.0271
     26 H8         11.9770    8.8046    5.7855 H           1 Y27       0.0271
     27 H9         12.8637    9.6926    3.6557 H           1 Y27       0.0293
     28 H10        14.0161    9.9474    4.9604 H           1 Y27       0.0293
     29 H11        10.6665    8.5974    3.7302 H           1 Y27       0.0850
     30 H12         9.5082    7.3942    1.9393 H           1 Y27       0.0284
     31 H13        10.4612    5.9155    2.2607 H           1 Y27       0.0284
     32 H14        11.2563    7.3898    1.6299 H           1 Y27       0.0284
     33 H15         9.6332    7.3797    5.5123 H           1 Y27       0.1997
     34 H16         9.5775    6.0179    4.5515 H           1 Y27       0.1997
     35 H17         8.6928    7.3752    4.1263 H           1 Y27       0.1997
     36 H18        16.2706    9.9894    4.3567 H           1 Y27       0.2307
     37 H19        17.7761   11.2982    5.2584 H           1 Y27       0.0596
     38 H20        19.9828   11.5810    6.2144 H           1 Y27       0.0771
     39 H21        20.5576    7.5089    6.3419 H           1 Y27       0.0771
     40 H22        18.3840    7.1023    5.3933 H           1 Y27       0.0596
@<TRIPOS>BOND
     1     1     2   2
     2     2     3   1
     3     2    12  am
     4     3     4   1
     5     3     8   1
     6     4     5   1
     7     5     6   1
     8     6     7   1
     9     6     9   1
    10     7     8   1
    11     9    10   1
    12     9    11   1
    13    12    13   1
    14    13    14  ar
    15    13    18  ar
    16    14    15  ar
    17    15    16  ar
    18    16    17  ar
    19    17    18  ar
    20     3    19   1
    21     4    20   1
    22     4    21   1
    23     5    22   1
    24     5    23   1
    25     6    24   1
    26     7    25   1
    27     7    26   1
    28     8    27   1
    29     8    28   1
    30     9    29   1
    31    10    30   1
    32    10    31   1
    33    10    32   1
    34    11    33   1
    35    11    34   1
    36    11    35   1
    37    12    36   1
    38    14    37   1
    39    15    38   1
    40    17    39   1
    41    18    40   1
@<TRIPOS>SUBSTRUCTURE
     1  Y27      2

