@<TRIPOS>MOLECULE
1q8t_ligand_041
    40    41
SMALL
GAST_HUCK
****
This file was generated by PARSER (from files_GN.cpp)

@<TRIPOS>ATOM
      1 O23        11.8176    9.2764    4.2537 O.2         1 Y27      -0.3826
      2 C22        11.0986    8.2927    4.4092 C.2         1 Y27       0.2105
      3 C31         9.6685    8.4530    4.6627 C.3         1 Y27       0.0554
      4 C36         9.3221    9.7361    5.4814 C.3         1 Y27      -0.0322
      5 C35         7.7984    9.8728    5.7319 C.3         1 Y27      -0.0428
      6 C34         6.9667    9.8376    4.4094 C.3         1 Y27       0.0020
      7 C33         7.3246    8.5486    3.6034 C.3         1 Y27      -0.0428
      8 C32         8.8497    8.4112    3.3378 C.3         1 Y27      -0.0322
      9 C41         5.4035   10.0150    4.5747 C.3         1 Y27      -0.0244
     10 C42         4.7832    9.7140    5.9635 C.3         1 Y27      -0.0215
     11 N43         4.9947   11.3787    4.2014 N.4         1 Y27       0.2207
     12 N21        11.6072    7.0715    4.2972 N.am        1 Y27      -0.2247
     13 C14        12.9246    6.7779    4.1688 C.ar        1 Y27       0.0867
     14 C15        13.7305    6.6041    5.3128 C.ar        1 Y27      -0.0140
     15 C16        15.0824    6.2601    5.1457 C.ar        1 Y27      -0.0065
     16 N11        15.5880    6.0843    3.8977 N.ar        1 Y27      -0.3199
     17 C12        14.8389    6.2443    2.7785 C.ar        1 Y27      -0.0065
     18 C13        13.4812    6.5940    2.8874 C.ar        1 Y27      -0.0140
     19 H1          9.3418    7.5975    5.2718 H           1 Y27       0.0544
     20 H2          9.6701   10.6270    4.9482 H           1 Y27       0.0293
     21 H3          9.8390    9.6997    6.4463 H           1 Y27       0.0293
     22 H4          7.6148   10.8136    6.2585 H           1 Y27       0.0271
     23 H5          7.4889    9.0520    6.3849 H           1 Y27       0.0271
     24 H6          7.3294   10.6743    3.7993 H           1 Y27       0.0355
     25 H7          6.8145    8.5643    2.6355 H           1 Y27       0.0271
     26 H8          6.9744    7.6722    4.1538 H           1 Y27       0.0271
     27 H9          9.0266    7.4638    2.8220 H           1 Y27       0.0293
     28 H10         9.1730    9.2184    2.6763 H           1 Y27       0.0293
     29 H11         4.8859    9.3610    3.8663 H           1 Y27       0.0850
     30 H12         3.6951    9.8043    5.9203 H           1 Y27       0.0284
     31 H13         5.1510   10.4161    6.7145 H           1 Y27       0.0284
     32 H14         5.0262    8.6978    6.2762 H           1 Y27       0.0284
     33 H15         5.2775   11.5668    3.2361 H           1 Y27       0.1997
     34 H16         5.4366   12.0564    4.8245 H           1 Y27       0.1997
     35 H17         3.9787   11.4586    4.2749 H           1 Y27       0.1997
     36 H18        11.0051    6.3178    4.3984 H           1 Y27       0.2307
     37 H19        13.3388    6.7187    6.2506 H           1 Y27       0.0596
     38 H20        15.6826    6.1218    5.9581 H           1 Y27       0.0771
     39 H21        15.2672    6.0970    1.8611 H           1 Y27       0.0771
     40 H22        12.9105    6.7121    2.0477 H           1 Y27       0.0596
@<TRIPOS>BOND
     1     1     2   2
     2     2     3   1
     3     2    12  am
     4     3     4   1
     5     3     8   1
     6     4     5   1
     7     5     6   1
     8     6     7   1
     9     6     9   1
    10     7     8   1
    11     9    10   1
    12     9    11   1
    13    12    13   1
    14    13    14  ar
    15    13    18  ar
    16    14    15  ar
    17    15    16  ar
    18    16    17  ar
    19    17    18  ar
    20     3    19   1
    21     4    20   1
    22     4    21   1
    23     5    22   1
    24     5    23   1
    25     6    24   1
    26     7    25   1
    27     7    26   1
    28     8    27   1
    29     8    28   1
    30     9    29   1
    31    10    30   1
    32    10    31   1
    33    10    32   1
    34    11    33   1
    35    11    34   1
    36    11    35   1
    37    12    36   1
    38    14    37   1
    39    15    38   1
    40    17    39   1
    41    18    40   1
@<TRIPOS>SUBSTRUCTURE
     1  Y27      2

