@<TRIPOS>MOLECULE
1q8t_ligand_049
    40    41
SMALL
GAST_HUCK
****
This file was generated by PARSER (from files_GN.cpp)

@<TRIPOS>ATOM
      1 O23        14.6992    8.3383    3.4960 O.2         1 Y27      -0.3826
      2 C22        15.4181    8.4197    2.5032 C.2         1 Y27       0.2105
      3 C31        14.8064    8.3482    1.1644 C.3         1 Y27       0.0554
      4 C36        14.9138    9.6571    0.3124 C.3         1 Y27      -0.0322
      5 C35        16.2674    9.8598   -0.4322 C.3         1 Y27      -0.0428
      6 C34        16.7405    8.6172   -1.2702 C.3         1 Y27       0.0020
      7 C33        16.6505    7.3284   -0.3813 C.3         1 Y27      -0.0428
      8 C32        15.2879    7.1215    0.3250 C.3         1 Y27      -0.0322
      9 C41        16.2025    8.5558   -2.7633 C.3         1 Y27      -0.0244
     10 C42        15.9646    7.1546   -3.3867 C.3         1 Y27      -0.0215
     11 N43        14.9937    9.3562   -3.0282 N.4         1 Y27       0.2207
     12 N21        16.7132    8.6496    2.6479 N.am        1 Y27      -0.2247
     13 C14        17.4368    8.8227    3.7873 C.ar        1 Y27       0.0867
     14 C15        17.9491    7.7431    4.5429 C.ar        1 Y27      -0.0140
     15 C16        18.8077    8.0181    5.6267 C.ar        1 Y27      -0.0065
     16 N11        19.1225    9.2995    5.9338 N.ar        1 Y27      -0.3199
     17 C12        18.6403   10.3594    5.2360 C.ar        1 Y27      -0.0065
     18 C13        17.7943   10.1379    4.1345 C.ar        1 Y27      -0.0140
     19 H1         13.7326    8.1861    1.3188 H           1 Y27       0.0544
     20 H2         14.7236   10.5221    0.9541 H           1 Y27       0.0293
     21 H3         14.1173    9.6439   -0.4341 H           1 Y27       0.0293
     22 H4         17.0383   10.1047    0.2977 H           1 Y27       0.0271
     23 H5         16.1985   10.7436   -1.0724 H           1 Y27       0.0271
     24 H6         17.8226    8.7582   -1.3887 H           1 Y27       0.0355
     25 H7         17.4162    7.3863    0.3927 H           1 Y27       0.0271
     26 H8         16.8839    6.4373   -0.9668 H           1 Y27       0.0271
     27 H9         14.5424    6.8874   -0.4390 H           1 Y27       0.0293
     28 H10        15.3586    6.2441    0.9778 H           1 Y27       0.0293
     29 H11        16.9600    9.0302   -3.3954 H           1 Y27       0.0850
     30 H12        15.6015    7.2530   -4.4118 H           1 Y27       0.0284
     31 H13        15.2187    6.5954   -2.8189 H           1 Y27       0.0284
     32 H14        16.8964    6.5819   -3.4186 H           1 Y27       0.0284
     33 H15        15.1748   10.3377   -2.8185 H           1 Y27       0.1997
     34 H16        14.2177    9.0117   -2.4683 H           1 Y27       0.1997
     35 H17        14.7593    9.2747   -4.0198 H           1 Y27       0.1997
     36 H18        17.2098    8.7985    1.8398 H           1 Y27       0.2307
     37 H19        17.7476    6.7779    4.2765 H           1 Y27       0.0596
     38 H20        19.2164    7.2565    6.1729 H           1 Y27       0.0771
     39 H21        18.9054   11.3107    5.5044 H           1 Y27       0.0771
     40 H22        17.4523   10.9350    3.5933 H           1 Y27       0.0596
@<TRIPOS>BOND
     1     1     2   2
     2     2     3   1
     3     2    12  am
     4     3     4   1
     5     3     8   1
     6     4     5   1
     7     5     6   1
     8     6     7   1
     9     6     9   1
    10     7     8   1
    11     9    10   1
    12     9    11   1
    13    12    13   1
    14    13    14  ar
    15    13    18  ar
    16    14    15  ar
    17    15    16  ar
    18    16    17  ar
    19    17    18  ar
    20     3    19   1
    21     4    20   1
    22     4    21   1
    23     5    22   1
    24     5    23   1
    25     6    24   1
    26     7    25   1
    27     7    26   1
    28     8    27   1
    29     8    28   1
    30     9    29   1
    31    10    30   1
    32    10    31   1
    33    10    32   1
    34    11    33   1
    35    11    34   1
    36    11    35   1
    37    12    36   1
    38    14    37   1
    39    15    38   1
    40    17    39   1
    41    18    40   1
@<TRIPOS>SUBSTRUCTURE
     1  Y27      2

