@<TRIPOS>MOLECULE
1q8t_ligand_016
    40    41
SMALL
GAST_HUCK
****
This file was generated by PARSER (from files_GN.cpp)

@<TRIPOS>ATOM
      1 O23        17.9783    7.2050    5.3245 O.2         1 Y27      -0.3826
      2 C22        17.3984    8.2860    5.3613 C.2         1 Y27       0.2105
      3 C31        16.7189    8.7860    4.1648 C.3         1 Y27       0.0554
      4 C36        17.4261    8.4036    2.8236 C.3         1 Y27      -0.0322
      5 C35        17.1313    6.9545    2.3369 C.3         1 Y27      -0.0428
      6 C34        15.6092    6.6148    2.2788 C.3         1 Y27       0.0020
      7 C33        14.9723    6.9324    3.6706 C.3         1 Y27      -0.0428
      8 C32        15.2072    8.3978    4.1256 C.3         1 Y27      -0.0322
      9 C41        14.8814    7.2711    1.0528 C.3         1 Y27      -0.0244
     10 C42        15.1903    6.5430   -0.2837 C.3         1 Y27      -0.0215
     11 N43        13.4133    7.3071    1.2084 N.4         1 Y27       0.2207
     12 N21        17.3172    8.9639    6.5037 N.am        1 Y27      -0.2247
     13 C14        17.9555    8.6834    7.6770 C.ar        1 Y27       0.0867
     14 C15        17.3028    8.9996    8.8885 C.ar        1 Y27      -0.0140
     15 C16        17.9418    8.7136   10.1127 C.ar        1 Y27      -0.0065
     16 N11        19.1849    8.1752   10.1175 N.ar        1 Y27      -0.3199
     17 C12        19.8589    7.8833    8.9723 C.ar        1 Y27      -0.0065
     18 C13        19.2613    8.1426    7.7276 C.ar        1 Y27      -0.0140
     19 H1         16.7613    9.8805    4.2207 H           1 Y27       0.0544
     20 H2         18.5059    8.5214    2.9239 H           1 Y27       0.0293
     21 H3         17.1112    9.1046    2.0460 H           1 Y27       0.0293
     22 H4         17.6225    6.2520    3.0099 H           1 Y27       0.0271
     23 H5         17.5989    6.8184    1.3618 H           1 Y27       0.0271
     24 H6         15.5270    5.5278    2.1562 H           1 Y27       0.0355
     25 H7         15.4021    6.2642    4.4176 H           1 Y27       0.0271
     26 H8         13.9029    6.7241    3.6569 H           1 Y27       0.0271
     27 H9         14.6879    9.0691    3.4311 H           1 Y27       0.0293
     28 H10        14.7508    8.5401    5.1094 H           1 Y27       0.0293
     29 H11        15.1982    8.3079    0.9494 H           1 Y27       0.0850
     30 H12        14.6645    7.0192   -1.1103 H           1 Y27       0.0284
     31 H13        14.8766    5.4968   -0.2292 H           1 Y27       0.0284
     32 H14        16.2553    6.5758   -0.5120 H           1 Y27       0.0284
     33 H15        13.1544    7.9299    1.9720 H           1 Y27       0.1997
     34 H16        13.0635    6.3696    1.4035 H           1 Y27       0.1997
     35 H17        12.9917    7.6511    0.3426 H           1 Y27       0.1997
     36 H18        16.7065    9.7180    6.5233 H           1 Y27       0.2307
     37 H19        16.3645    9.4107    8.8908 H           1 Y27       0.0596
     38 H20        17.4789    8.9220   10.9967 H           1 Y27       0.0771
     39 H21        20.8019    7.4971    9.0220 H           1 Y27       0.0771
     40 H22        19.7840    7.9531    6.8678 H           1 Y27       0.0596
@<TRIPOS>BOND
     1     1     2   2
     2     2     3   1
     3     2    12  am
     4     3     4   1
     5     3     8   1
     6     4     5   1
     7     5     6   1
     8     6     7   1
     9     6     9   1
    10     7     8   1
    11     9    10   1
    12     9    11   1
    13    12    13   1
    14    13    14  ar
    15    13    18  ar
    16    14    15  ar
    17    15    16  ar
    18    16    17  ar
    19    17    18  ar
    20     3    19   1
    21     4    20   1
    22     4    21   1
    23     5    22   1
    24     5    23   1
    25     6    24   1
    26     7    25   1
    27     7    26   1
    28     8    27   1
    29     8    28   1
    30     9    29   1
    31    10    30   1
    32    10    31   1
    33    10    32   1
    34    11    33   1
    35    11    34   1
    36    11    35   1
    37    12    36   1
    38    14    37   1
    39    15    38   1
    40    17    39   1
    41    18    40   1
@<TRIPOS>SUBSTRUCTURE
     1  Y27      2

