@<TRIPOS>MOLECULE
1q8t_ligand_009
    40    41
SMALL
GAST_HUCK
****
This file was generated by PARSER (from files_GN.cpp)

@<TRIPOS>ATOM
      1 O23        14.0206   10.9750    1.5561 O.2         1 Y27      -0.3826
      2 C22        12.8047   11.1200    1.5481 C.2         1 Y27       0.2105
      3 C31        11.9963   10.1542    2.2971 C.3         1 Y27       0.0554
      4 C36        11.4744   10.7226    3.6536 C.3         1 Y27      -0.0322
      5 C35        10.6609    9.6552    4.4462 C.3         1 Y27      -0.0428
      6 C34         9.4721    9.0749    3.6122 C.3         1 Y27       0.0020
      7 C33         9.9979    8.5308    2.2438 C.3         1 Y27      -0.0428
      8 C32        10.8173    9.5836    1.4556 C.3         1 Y27      -0.0322
      9 C41         8.5635    8.0416    4.3731 C.3         1 Y27      -0.0244
     10 C42         9.1104    6.5910    4.4700 C.3         1 Y27      -0.0215
     11 N43         8.2404    8.4958    5.7352 N.4         1 Y27       0.2207
     12 N21        12.2394   12.1688    0.9612 N.am        1 Y27      -0.2247
     13 C14        12.7715   13.1996    0.2318 C.ar        1 Y27       0.0867
     14 C15        14.0374   13.1815   -0.4101 C.ar        1 Y27      -0.0140
     15 C16        14.4477   14.3043   -1.1586 C.ar        1 Y27      -0.0065
     16 N11        13.6379   15.3855   -1.2610 N.ar        1 Y27      -0.3199
     17 C12        12.4205   15.4428   -0.6653 C.ar        1 Y27      -0.0065
     18 C13        11.9622   14.3473    0.0854 C.ar        1 Y27      -0.0140
     19 H1         12.6421    9.3059    2.5542 H           1 Y27       0.0544
     20 H2         10.8409   11.5966    3.4754 H           1 Y27       0.0293
     21 H3         12.3165   11.0444    4.2731 H           1 Y27       0.0293
     22 H4         10.2799   10.1272    5.3580 H           1 Y27       0.0271
     23 H5         11.3259    8.8404    4.7508 H           1 Y27       0.0271
     24 H6          8.8211    9.9298    3.3853 H           1 Y27       0.0355
     25 H7          9.1521    8.2117    1.6295 H           1 Y27       0.0271
     26 H8         10.6436    7.6643    2.4095 H           1 Y27       0.0271
     27 H9         11.2090    9.1164    0.5463 H           1 Y27       0.0293
     28 H10        10.1317   10.3821    1.1540 H           1 Y27       0.0293
     29 H11         7.6118    7.9845    3.8347 H           1 Y27       0.0850
     30 H12         8.4335    5.9755    5.0636 H           1 Y27       0.0284
     31 H13        10.0926    6.5850    4.9419 H           1 Y27       0.0284
     32 H14         9.1841    6.1351    3.4820 H           1 Y27       0.0284
     33 H15         7.9433    9.4744    5.7203 H           1 Y27       0.1997
     34 H16         9.0662    8.4013    6.3292 H           1 Y27       0.1997
     35 H17         7.4888    7.9209    6.1198 H           1 Y27       0.1997
     36 H18        11.2772   12.2333    1.0766 H           1 Y27       0.2307
     37 H19        14.6369   12.3590   -0.3878 H           1 Y27       0.0596
     38 H20        15.3393   14.2963   -1.6530 H           1 Y27       0.0771
     39 H21        11.8472   16.2759   -0.7599 H           1 Y27       0.0771
     40 H22        11.0388   14.3956    0.5213 H           1 Y27       0.0596
@<TRIPOS>BOND
     1     1     2   2
     2     2     3   1
     3     2    12  am
     4     3     4   1
     5     3     8   1
     6     4     5   1
     7     5     6   1
     8     6     7   1
     9     6     9   1
    10     7     8   1
    11     9    10   1
    12     9    11   1
    13    12    13   1
    14    13    14  ar
    15    13    18  ar
    16    14    15  ar
    17    15    16  ar
    18    16    17  ar
    19    17    18  ar
    20     3    19   1
    21     4    20   1
    22     4    21   1
    23     5    22   1
    24     5    23   1
    25     6    24   1
    26     7    25   1
    27     7    26   1
    28     8    27   1
    29     8    28   1
    30     9    29   1
    31    10    30   1
    32    10    31   1
    33    10    32   1
    34    11    33   1
    35    11    34   1
    36    11    35   1
    37    12    36   1
    38    14    37   1
    39    15    38   1
    40    17    39   1
    41    18    40   1
@<TRIPOS>SUBSTRUCTURE
     1  Y27      2

