@<TRIPOS>MOLECULE
1q8t_ligand_033
    40    41
SMALL
GAST_HUCK
****
This file was generated by PARSER (from files_GN.cpp)

@<TRIPOS>ATOM
      1 O23        15.9220    6.7008    4.0697 O.2         1 Y27      -0.3826
      2 C22        15.3249    7.4004    3.2583 C.2         1 Y27       0.2105
      3 C31        14.1935    6.7858    2.5467 C.3         1 Y27       0.0554
      4 C36        13.0747    6.3213    3.5359 C.3         1 Y27      -0.0322
      5 C35        12.1446    7.4724    4.0232 C.3         1 Y27      -0.0428
      6 C34        11.5278    8.3256    2.8666 C.3         1 Y27       0.0020
      7 C33        12.6674    8.7853    1.8979 C.3         1 Y27      -0.0428
      8 C32        13.5517    7.6172    1.3852 C.3         1 Y27      -0.0322
      9 C41        10.2415    7.6801    2.2208 C.3         1 Y27      -0.0244
     10 C42         9.8003    8.3223    0.8806 C.3         1 Y27      -0.0215
     11 N43        10.2833    6.2164    2.0514 N.4         1 Y27       0.2207
     12 N21        15.7857    8.6130    2.9660 N.am        1 Y27      -0.2247
     13 C14        16.8123    9.3090    3.5365 C.ar        1 Y27       0.0867
     14 C15        17.5439   10.1744    2.6960 C.ar        1 Y27      -0.0140
     15 C16        18.5812   10.9579    3.2328 C.ar        1 Y27      -0.0065
     16 N11        18.8637   10.8868    4.5574 N.ar        1 Y27      -0.3199
     17 C12        18.1752   10.0821    5.4047 C.ar        1 Y27      -0.0065
     18 C13        17.1269    9.2794    4.9166 C.ar        1 Y27      -0.0140
     19 H1         14.5977    5.8836    2.0740 H           1 Y27       0.0544
     20 H2         13.5082    5.8319    4.4115 H           1 Y27       0.0293
     21 H3         12.4853    5.5554    3.0390 H           1 Y27       0.0293
     22 H4         12.7297    8.1292    4.6731 H           1 Y27       0.0271
     23 H5         11.3407    7.0534    4.6358 H           1 Y27       0.0271
     24 H6         11.1649    9.2492    3.3348 H           1 Y27       0.0355
     25 H7         13.2975    9.4991    2.4303 H           1 Y27       0.0271
     26 H8         12.2632    9.3285    1.0409 H           1 Y27       0.0271
     27 H9         12.9337    6.9611    0.7662 H           1 Y27       0.0293
     28 H10        14.3299    8.0134    0.7269 H           1 Y27       0.0293
     29 H11         9.4190    7.8502    2.9223 H           1 Y27       0.0850
     30 H12         8.8316    7.9305    0.5725 H           1 Y27       0.0284
     31 H13        10.5219    8.0980    0.0935 H           1 Y27       0.0284
     32 H14         9.7133    9.4061    0.9895 H           1 Y27       0.0284
     33 H15        10.2194    5.7596    2.9669 H           1 Y27       0.1997
     34 H16        11.1524    5.9220    1.6006 H           1 Y27       0.1997
     35 H17         9.4908    5.9250    1.4780 H           1 Y27       0.1997
     36 H18        15.3768    9.0492    2.2030 H           1 Y27       0.2307
     37 H19        17.3340   10.2321    1.6950 H           1 Y27       0.0596
     38 H20        19.1277   11.5764    2.6309 H           1 Y27       0.0771
     39 H21        18.4206   10.0700    6.3972 H           1 Y27       0.0771
     40 H22        16.5836    8.7117    5.5718 H           1 Y27       0.0596
@<TRIPOS>BOND
     1     1     2   2
     2     2     3   1
     3     2    12  am
     4     3     4   1
     5     3     8   1
     6     4     5   1
     7     5     6   1
     8     6     7   1
     9     6     9   1
    10     7     8   1
    11     9    10   1
    12     9    11   1
    13    12    13   1
    14    13    14  ar
    15    13    18  ar
    16    14    15  ar
    17    15    16  ar
    18    16    17  ar
    19    17    18  ar
    20     3    19   1
    21     4    20   1
    22     4    21   1
    23     5    22   1
    24     5    23   1
    25     6    24   1
    26     7    25   1
    27     7    26   1
    28     8    27   1
    29     8    28   1
    30     9    29   1
    31    10    30   1
    32    10    31   1
    33    10    32   1
    34    11    33   1
    35    11    34   1
    36    11    35   1
    37    12    36   1
    38    14    37   1
    39    15    38   1
    40    17    39   1
    41    18    40   1
@<TRIPOS>SUBSTRUCTURE
     1  Y27      2

