@<TRIPOS>MOLECULE
1q8t_ligand_048
    40    41
SMALL
GAST_HUCK
****
This file was generated by PARSER (from files_GN.cpp)

@<TRIPOS>ATOM
      1 O23        14.5913   12.3692   -0.1921 O.2         1 Y27      -0.3826
      2 C22        14.1533   11.2251   -0.1820 C.2         1 Y27       0.2105
      3 C31        13.7810   10.6377    1.1053 C.3         1 Y27       0.0554
      4 C36        12.2643   10.2864    1.1627 C.3         1 Y27      -0.0322
      5 C35        11.8723    9.7155    2.5513 C.3         1 Y27      -0.0428
      6 C34        12.7179    8.4584    2.9342 C.3         1 Y27       0.0020
      7 C33        14.2427    8.7814    2.8404 C.3         1 Y27      -0.0428
      8 C32        14.6423    9.3901    1.4672 C.3         1 Y27      -0.0322
      9 C41        12.2729    7.8600    4.3143 C.3         1 Y27      -0.0244
     10 C42        12.9311    6.4978    4.6498 C.3         1 Y27      -0.0215
     11 N43        12.4943    8.7747    5.4485 N.4         1 Y27       0.2207
     12 N21        14.0585   10.5119   -1.2997 N.am        1 Y27      -0.2247
     13 C14        14.3017   10.8744   -2.5961 C.ar        1 Y27       0.0867
     14 C15        14.6059    9.8294   -3.4960 C.ar        1 Y27      -0.0140
     15 C16        14.8132   10.1157   -4.8571 C.ar        1 Y27      -0.0065
     16 N11        14.6929   11.3906   -5.3047 N.ar        1 Y27      -0.3199
     17 C12        14.3830   12.4231   -4.4818 C.ar        1 Y27      -0.0065
     18 C13        14.1856   12.1916   -3.1083 C.ar        1 Y27      -0.0140
     19 H1         13.9603   11.3842    1.8895 H           1 Y27       0.0544
     20 H2         12.0157    9.5489    0.3928 H           1 Y27       0.0293
     21 H3         11.6683   11.1845    0.9717 H           1 Y27       0.0293
     22 H4         10.8096    9.4548    2.5320 H           1 Y27       0.0271
     23 H5         12.0091   10.5002    3.2991 H           1 Y27       0.0271
     24 H6         12.5025    7.6949    2.1759 H           1 Y27       0.0355
     25 H7         14.8251    7.8690    2.9864 H           1 Y27       0.0271
     26 H8         14.5163    9.4790    3.6333 H           1 Y27       0.0271
     27 H9         15.6982    9.6757    1.5001 H           1 Y27       0.0293
     28 H10        14.5282    8.6207    0.6985 H           1 Y27       0.0293
     29 H11        11.1943    7.6821    4.2635 H           1 Y27       0.0850
     30 H12        12.4314    6.0437    5.5094 H           1 Y27       0.0284
     31 H13        13.9871    6.6231    4.8973 H           1 Y27       0.0284
     32 H14        12.8482    5.8129    3.8028 H           1 Y27       0.0284
     33 H15        12.1078    9.6975    5.2406 H           1 Y27       0.1997
     34 H16        13.4944    8.8605    5.6384 H           1 Y27       0.1997
     35 H17        12.0208    8.3985    6.2743 H           1 Y27       0.1997
     36 H18        13.8024    9.5828   -1.1845 H           1 Y27       0.2307
     37 H19        14.6815    8.8625   -3.1689 H           1 Y27       0.0596
     38 H20        15.0428    9.3684   -5.5143 H           1 Y27       0.0771
     39 H21        14.2801   13.3625   -4.8692 H           1 Y27       0.0771
     40 H22        13.9086   12.9735   -2.5133 H           1 Y27       0.0596
@<TRIPOS>BOND
     1     1     2   2
     2     2     3   1
     3     2    12  am
     4     3     4   1
     5     3     8   1
     6     4     5   1
     7     5     6   1
     8     6     7   1
     9     6     9   1
    10     7     8   1
    11     9    10   1
    12     9    11   1
    13    12    13   1
    14    13    14  ar
    15    13    18  ar
    16    14    15  ar
    17    15    16  ar
    18    16    17  ar
    19    17    18  ar
    20     3    19   1
    21     4    20   1
    22     4    21   1
    23     5    22   1
    24     5    23   1
    25     6    24   1
    26     7    25   1
    27     7    26   1
    28     8    27   1
    29     8    28   1
    30     9    29   1
    31    10    30   1
    32    10    31   1
    33    10    32   1
    34    11    33   1
    35    11    34   1
    36    11    35   1
    37    12    36   1
    38    14    37   1
    39    15    38   1
    40    17    39   1
    41    18    40   1
@<TRIPOS>SUBSTRUCTURE
     1  Y27      2

