@<TRIPOS>MOLECULE
1q8t_ligand_057
    40    41
SMALL
GAST_HUCK
****
This file was generated by PARSER (from files_GN.cpp)

@<TRIPOS>ATOM
      1 O23        17.1926    8.7082    7.5884 O.2         1 Y27      -0.3826
      2 C22        16.9488    9.7614    7.0099 C.2         1 Y27       0.2105
      3 C31        16.6178    9.7342    5.5868 C.3         1 Y27       0.0554
      4 C36        17.7861    9.2096    4.6958 C.3         1 Y27      -0.0322
      5 C35        17.9136    7.6644    4.6818 C.3         1 Y27      -0.0428
      6 C34        16.5911    6.9428    4.2706 C.3         1 Y27       0.0020
      7 C33        15.4478    7.4189    5.2244 C.3         1 Y27      -0.0428
      8 C32        15.2874    8.9672    5.2935 C.3         1 Y27      -0.0322
      9 C41        16.1655    7.0402    2.7531 C.3         1 Y27      -0.0244
     10 C42        17.3081    7.0854    1.7082 C.3         1 Y27      -0.0215
     11 N43        15.2901    5.9009    2.4244 N.4         1 Y27       0.2207
     12 N21        16.9429   10.9144    7.6686 N.am        1 Y27      -0.2247
     13 C14        17.1048   11.1169    9.0098 C.ar        1 Y27       0.0867
     14 C15        16.5815   10.2487    9.9973 C.ar        1 Y27      -0.0140
     15 C16        16.7692   10.5485   11.3601 C.ar        1 Y27      -0.0065
     16 N11        17.4376   11.6702   11.7159 N.ar        1 Y27      -0.3199
     17 C12        17.9380   12.5384   10.8031 C.ar        1 Y27      -0.0065
     18 C13        17.7705   12.2908    9.4287 C.ar        1 Y27      -0.0140
     19 H1         16.4507   10.7700    5.2731 H           1 Y27       0.0544
     20 H2         18.7304    9.6438    5.0312 H           1 Y27       0.0293
     21 H3         17.6283    9.5639    3.6751 H           1 Y27       0.0293
     22 H4         18.2130    7.3200    5.6773 H           1 Y27       0.0271
     23 H5         18.7289    7.3764    4.0156 H           1 Y27       0.0271
     24 H6         16.7655    5.8812    4.4860 H           1 Y27       0.0355
     25 H7         15.6598    7.0442    6.2257 H           1 Y27       0.0271
     26 H8         14.4927    6.9782    4.9264 H           1 Y27       0.0271
     27 H9         14.8868    9.3159    4.3388 H           1 Y27       0.0293
     28 H10        14.5341    9.2166    6.0501 H           1 Y27       0.0293
     29 H11        15.5688    7.9389    2.5853 H           1 Y27       0.0850
     30 H12        16.9011    7.0309    0.6960 H           1 Y27       0.0284
     31 H13        17.9977    6.2540    1.8520 H           1 Y27       0.0284
     32 H14        17.8627    8.0221    1.7824 H           1 Y27       0.0284
     33 H15        14.4427    5.9330    2.9933 H           1 Y27       0.1997
     34 H16        15.7865    5.0293    2.6156 H           1 Y27       0.1997
     35 H17        15.0328    5.9327    1.4344 H           1 Y27       0.1997
     36 H18        16.8649   11.7164    7.1268 H           1 Y27       0.2307
     37 H19        16.0303    9.4337    9.7409 H           1 Y27       0.0596
     38 H20        16.3797    9.9316   12.0769 H           1 Y27       0.0771
     39 H21        18.4262   13.3790   11.1223 H           1 Y27       0.0771
     40 H22        18.1437   12.9485    8.7425 H           1 Y27       0.0596
@<TRIPOS>BOND
     1     1     2   2
     2     2     3   1
     3     2    12  am
     4     3     4   1
     5     3     8   1
     6     4     5   1
     7     5     6   1
     8     6     7   1
     9     6     9   1
    10     7     8   1
    11     9    10   1
    12     9    11   1
    13    12    13   1
    14    13    14  ar
    15    13    18  ar
    16    14    15  ar
    17    15    16  ar
    18    16    17  ar
    19    17    18  ar
    20     3    19   1
    21     4    20   1
    22     4    21   1
    23     5    22   1
    24     5    23   1
    25     6    24   1
    26     7    25   1
    27     7    26   1
    28     8    27   1
    29     8    28   1
    30     9    29   1
    31    10    30   1
    32    10    31   1
    33    10    32   1
    34    11    33   1
    35    11    34   1
    36    11    35   1
    37    12    36   1
    38    14    37   1
    39    15    38   1
    40    17    39   1
    41    18    40   1
@<TRIPOS>SUBSTRUCTURE
     1  Y27      2

