@<TRIPOS>MOLECULE
1q8t_ligand_011
    40    41
SMALL
GAST_HUCK
****
This file was generated by PARSER (from files_GN.cpp)

@<TRIPOS>ATOM
      1 O23        11.2023   10.3093   -0.9907 O.2         1 Y27      -0.3826
      2 C22        11.6671   10.2213    0.1468 C.2         1 Y27       0.2105
      3 C31        10.9680    9.3685    1.1095 C.3         1 Y27       0.0554
      4 C36        11.2989    9.6877    2.6052 C.3         1 Y27      -0.0322
      5 C35        10.5906    8.7420    3.6024 C.3         1 Y27      -0.0428
      6 C34         9.0463    8.7155    3.3919 C.3         1 Y27       0.0020
      7 C33         8.7165    8.3890    1.9016 C.3         1 Y27      -0.0428
      8 C32         9.4150    9.3653    0.9145 C.3         1 Y27      -0.0322
      9 C41         8.2756    7.7862    4.3941 C.3         1 Y27      -0.0244
     10 C42         8.8356    6.3495    4.5660 C.3         1 Y27      -0.0215
     11 N43         8.1831    8.4121    5.7232 N.4         1 Y27       0.2207
     12 N21        12.7653   10.9122    0.4689 N.am        1 Y27      -0.2247
     13 C14        13.5162   11.7221   -0.3178 C.ar        1 Y27       0.0867
     14 C15        14.0571   12.8918    0.2634 C.ar        1 Y27      -0.0140
     15 C16        14.8626   13.7395   -0.5200 C.ar        1 Y27      -0.0065
     16 N11        15.1469   13.4106   -1.8038 N.ar        1 Y27      -0.3199
     17 C12        14.6482   12.2940   -2.3946 C.ar        1 Y27      -0.0065
     18 C13        13.8219   11.4209   -1.6659 C.ar        1 Y27      -0.0140
     19 H1         11.3133    8.3472    0.9143 H           1 Y27       0.0544
     20 H2         11.0090   10.7195    2.8322 H           1 Y27       0.0293
     21 H3         12.3749    9.5957    2.7693 H           1 Y27       0.0293
     22 H4         10.8204    9.0681    4.6203 H           1 Y27       0.0271
     23 H5         11.0065    7.7393    3.4720 H           1 Y27       0.0271
     24 H6          8.6812    9.7327    3.5663 H           1 Y27       0.0355
     25 H7          7.6363    8.4372    1.7406 H           1 Y27       0.0271
     26 H8          9.0431    7.3736    1.6715 H           1 Y27       0.0271
     27 H9          9.1633    9.0432   -0.1007 H           1 Y27       0.0293
     28 H10         9.0148   10.3740    1.0552 H           1 Y27       0.0293
     29 H11         7.2436    7.6974    4.0420 H           1 Y27       0.0850
     30 H12         8.1590    5.7612    5.1887 H           1 Y27       0.0284
     31 H13         9.8111    6.3681    5.0555 H           1 Y27       0.0284
     32 H14         8.9350    5.8501    3.6014 H           1 Y27       0.0284
     33 H15         7.8555    9.3759    5.6316 H           1 Y27       0.1997
     34 H16         9.0982    8.4022    6.1787 H           1 Y27       0.1997
     35 H17         7.5211    7.8876    6.2979 H           1 Y27       0.1997
     36 H18        13.0504   10.8632    1.3962 H           1 Y27       0.2307
     37 H19        13.8616   13.1354    1.2374 H           1 Y27       0.0596
     38 H20        15.2352   14.6001   -0.1236 H           1 Y27       0.0771
     39 H21        14.8928   12.0807   -3.3641 H           1 Y27       0.0771
     40 H22        13.4813   10.5648   -2.1028 H           1 Y27       0.0596
@<TRIPOS>BOND
     1     1     2   2
     2     2     3   1
     3     2    12  am
     4     3     4   1
     5     3     8   1
     6     4     5   1
     7     5     6   1
     8     6     7   1
     9     6     9   1
    10     7     8   1
    11     9    10   1
    12     9    11   1
    13    12    13   1
    14    13    14  ar
    15    13    18  ar
    16    14    15  ar
    17    15    16  ar
    18    16    17  ar
    19    17    18  ar
    20     3    19   1
    21     4    20   1
    22     4    21   1
    23     5    22   1
    24     5    23   1
    25     6    24   1
    26     7    25   1
    27     7    26   1
    28     8    27   1
    29     8    28   1
    30     9    29   1
    31    10    30   1
    32    10    31   1
    33    10    32   1
    34    11    33   1
    35    11    34   1
    36    11    35   1
    37    12    36   1
    38    14    37   1
    39    15    38   1
    40    17    39   1
    41    18    40   1
@<TRIPOS>SUBSTRUCTURE
     1  Y27      2

