@<TRIPOS>MOLECULE
1q8t_ligand_026
    40    41
SMALL
GAST_HUCK
****
This file was generated by PARSER (from files_GN.cpp)

@<TRIPOS>ATOM
      1 O23        17.0202    7.3886    3.0734 O.2         1 Y27      -0.3826
      2 C22        16.3656    8.4246    3.1217 C.2         1 Y27       0.2105
      3 C31        14.9920    8.4110    3.6357 C.3         1 Y27       0.0554
      4 C36        13.9858    8.7507    2.4888 C.3         1 Y27      -0.0322
      5 C35        12.5075    8.7623    2.9594 C.3         1 Y27      -0.0428
      6 C34        12.0951    7.4289    3.6640 C.3         1 Y27       0.0020
      7 C33        13.0931    7.1123    4.8202 C.3         1 Y27      -0.0428
      8 C32        14.5660    7.0792    4.3334 C.3         1 Y27      -0.0322
      9 C41        10.5976    7.3484    4.1485 C.3         1 Y27      -0.0244
     10 C42         9.9162    8.6926    4.5064 C.3         1 Y27      -0.0215
     11 N43         9.7635    6.6399    3.1645 N.4         1 Y27       0.2207
     12 N21        16.9010    9.5844    2.7505 N.am        1 Y27      -0.2247
     13 C14        18.1188    9.8272    2.1729 C.ar        1 Y27       0.0867
     14 C15        18.6996    8.9773    1.2027 C.ar        1 Y27      -0.0140
     15 C16        19.9305    9.3273    0.6187 C.ar        1 Y27      -0.0065
     16 N11        20.5520   10.4741    0.9897 N.ar        1 Y27      -0.3199
     17 C12        20.0223   11.3280    1.9008 C.ar        1 Y27      -0.0065
     18 C13        18.7847   11.0289    2.5028 C.ar        1 Y27      -0.0140
     19 H1         14.9281    9.1952    4.3990 H           1 Y27       0.0544
     20 H2         14.0858    8.0127    1.6882 H           1 Y27       0.0293
     21 H3         14.2171    9.7333    2.0662 H           1 Y27       0.0293
     22 H4         11.8644    8.9241    2.0900 H           1 Y27       0.0271
     23 H5         12.3711    9.6085    3.6380 H           1 Y27       0.0271
     24 H6         12.2374    6.6342    2.9219 H           1 Y27       0.0355
     25 H7         12.8571    6.1318    5.2447 H           1 Y27       0.0271
     26 H8         12.9855    7.8560    5.6144 H           1 Y27       0.0271
     27 H9         15.2134    6.8917    5.1957 H           1 Y27       0.0293
     28 H10        14.6875    6.2429    3.6379 H           1 Y27       0.0293
     29 H11        10.5426    6.7252    5.0453 H           1 Y27       0.0850
     30 H12         8.9284    8.5137    4.9361 H           1 Y27       0.0284
     31 H13         9.7959    9.3083    3.6133 H           1 Y27       0.0284
     32 H14        10.5156    9.2357    5.2386 H           1 Y27       0.0284
     33 H15        10.0785    5.6682    3.1253 H           1 Y27       0.1997
     34 H16         9.8533    7.0746    2.2441 H           1 Y27       0.1997
     35 H17         8.7865    6.6608    3.4638 H           1 Y27       0.1997
     36 H18        16.3716   10.3740    2.9509 H           1 Y27       0.2307
     37 H19        18.2234    8.1272    0.8994 H           1 Y27       0.0596
     38 H20        20.3583    8.7287   -0.0887 H           1 Y27       0.0771
     39 H21        20.5257   12.1831    2.1441 H           1 Y27       0.0771
     40 H22        18.3898   11.6764    3.1894 H           1 Y27       0.0596
@<TRIPOS>BOND
     1     1     2   2
     2     2     3   1
     3     2    12  am
     4     3     4   1
     5     3     8   1
     6     4     5   1
     7     5     6   1
     8     6     7   1
     9     6     9   1
    10     7     8   1
    11     9    10   1
    12     9    11   1
    13    12    13   1
    14    13    14  ar
    15    13    18  ar
    16    14    15  ar
    17    15    16  ar
    18    16    17  ar
    19    17    18  ar
    20     3    19   1
    21     4    20   1
    22     4    21   1
    23     5    22   1
    24     5    23   1
    25     6    24   1
    26     7    25   1
    27     7    26   1
    28     8    27   1
    29     8    28   1
    30     9    29   1
    31    10    30   1
    32    10    31   1
    33    10    32   1
    34    11    33   1
    35    11    34   1
    36    11    35   1
    37    12    36   1
    38    14    37   1
    39    15    38   1
    40    17    39   1
    41    18    40   1
@<TRIPOS>SUBSTRUCTURE
     1  Y27      2

