@<TRIPOS>MOLECULE
1q8t_ligand_086
    40    41
SMALL
GAST_HUCK
****
This file was generated by PARSER (from files_GN.cpp)

@<TRIPOS>ATOM
      1 O23         9.4599    8.3986    2.8613 O.2         1 Y27      -0.3826
      2 C22         9.2092    8.8944    3.9564 C.2         1 Y27       0.2105
      3 C31         7.8593    9.4106    4.2013 C.3         1 Y27       0.0554
      4 C36         7.4875   10.6395    3.3125 C.3         1 Y27      -0.0322
      5 C35         6.9895   10.2885    1.8838 C.3         1 Y27      -0.0428
      6 C34         5.8587    9.2020    1.8291 C.3         1 Y27       0.0020
      7 C33         6.3236    7.9634    2.6567 C.3         1 Y27      -0.0428
      8 C32         6.7537    8.3120    4.1135 C.3         1 Y27      -0.0322
      9 C41         4.3703    9.6093    2.1966 C.3         1 Y27      -0.0244
     10 C42         4.0345   11.1169    2.1887 C.3         1 Y27      -0.0215
     11 N43         3.4199    8.9451    1.2806 N.4         1 Y27       0.2207
     12 N21        10.1606    9.0305    4.8815 N.am        1 Y27      -0.2247
     13 C14        11.4451    8.5704    4.8931 C.ar        1 Y27       0.0867
     14 C15        11.8902    7.4069    4.2107 C.ar        1 Y27      -0.0140
     15 C16        13.2272    6.9964    4.3349 C.ar        1 Y27      -0.0065
     16 N11        14.0817    7.7102    5.1065 N.ar        1 Y27      -0.3199
     17 C12        13.6984    8.8157    5.7914 C.ar        1 Y27      -0.0065
     18 C13        12.3694    9.2654    5.7038 C.ar        1 Y27      -0.0140
     19 H1          7.8270    9.7740    5.2343 H           1 Y27       0.0544
     20 H2          8.3592   11.2989    3.2269 H           1 Y27       0.0293
     21 H3          6.6999   11.2151    3.8087 H           1 Y27       0.0293
     22 H4          7.8464    9.9224    1.3144 H           1 Y27       0.0271
     23 H5          6.6556   11.2037    1.3827 H           1 Y27       0.0271
     24 H6          5.8367    8.8862    0.7821 H           1 Y27       0.0355
     25 H7          7.1640    7.4844    2.1420 H           1 Y27       0.0271
     26 H8          5.5133    7.2286    2.6883 H           1 Y27       0.0271
     27 H9          5.8766    8.6542    4.6578 H           1 Y27       0.0293
     28 H10         7.1082    7.4084    4.6052 H           1 Y27       0.0293
     29 H11         4.1243    9.2485    3.1985 H           1 Y27       0.0850
     30 H12         2.9703   11.2484    2.4033 H           1 Y27       0.0284
     31 H13         4.2636   11.5717    1.2231 H           1 Y27       0.0284
     32 H14         4.6066   11.6217    2.9758 H           1 Y27       0.0284
     33 H15         3.5235    7.9303    1.3525 H           1 Y27       0.1997
     34 H16         3.6181    9.2440    0.3197 H           1 Y27       0.1997
     35 H17         2.4602    9.2133    1.5291 H           1 Y27       0.1997
     36 H18         9.9118    9.5754    5.6454 H           1 Y27       0.2307
     37 H19        11.2514    6.8389    3.6546 H           1 Y27       0.0596
     38 H20        13.5557    6.1615    3.8518 H           1 Y27       0.0771
     39 H21        14.3763    9.3155    6.3705 H           1 Y27       0.0771
     40 H22        12.0840   10.0931    6.2268 H           1 Y27       0.0596
@<TRIPOS>BOND
     1     1     2   2
     2     2     3   1
     3     2    12  am
     4     3     4   1
     5     3     8   1
     6     4     5   1
     7     5     6   1
     8     6     7   1
     9     6     9   1
    10     7     8   1
    11     9    10   1
    12     9    11   1
    13    12    13   1
    14    13    14  ar
    15    13    18  ar
    16    14    15  ar
    17    15    16  ar
    18    16    17  ar
    19    17    18  ar
    20     3    19   1
    21     4    20   1
    22     4    21   1
    23     5    22   1
    24     5    23   1
    25     6    24   1
    26     7    25   1
    27     7    26   1
    28     8    27   1
    29     8    28   1
    30     9    29   1
    31    10    30   1
    32    10    31   1
    33    10    32   1
    34    11    33   1
    35    11    34   1
    36    11    35   1
    37    12    36   1
    38    14    37   1
    39    15    38   1
    40    17    39   1
    41    18    40   1
@<TRIPOS>SUBSTRUCTURE
     1  Y27      2

