@<TRIPOS>MOLECULE
1q8t_ligand_069
    40    41
SMALL
GAST_HUCK
****
This file was generated by PARSER (from files_GN.cpp)

@<TRIPOS>ATOM
      1 O23         8.1223    8.5030    2.8552 O.2         1 Y27      -0.3826
      2 C22         9.1987    8.1899    2.3540 C.2         1 Y27       0.2105
      3 C31         9.9668    7.1385    3.0216 C.3         1 Y27       0.0554
      4 C36        11.2821    6.6672    2.3193 C.3         1 Y27      -0.0322
      5 C35        12.4289    7.6981    2.4206 C.3         1 Y27      -0.0428
      6 C34        12.7839    8.0321    3.9018 C.3         1 Y27       0.0020
      7 C33        11.4864    8.4706    4.6651 C.3         1 Y27      -0.0428
      8 C32        10.2969    7.4833    4.5114 C.3         1 Y27      -0.0322
      9 C41        13.6710    6.9287    4.6041 C.3         1 Y27      -0.0244
     10 C42        15.0179    7.4729    5.1550 C.3         1 Y27      -0.0215
     11 N43        13.0160    6.1841    5.6996 N.4         1 Y27       0.2207
     12 N21         9.5444    8.6679    1.1605 N.am        1 Y27      -0.2247
     13 C14         8.9361    9.6206    0.3982 C.ar        1 Y27       0.0867
     14 C15         9.1049    9.5065   -0.9991 C.ar        1 Y27      -0.0140
     15 C16         8.5471   10.4689   -1.8589 C.ar        1 Y27      -0.0065
     16 N11         7.8878   11.5305   -1.3284 N.ar        1 Y27      -0.3199
     17 C12         7.7240   11.6954    0.0097 C.ar        1 Y27      -0.0065
     18 C13         8.2409   10.7435    0.9016 C.ar        1 Y27      -0.0140
     19 H1          9.3045    6.2692    3.0320 H           1 Y27       0.0544
     20 H2         11.0820    6.4443    1.2736 H           1 Y27       0.0293
     21 H3         11.6233    5.7359    2.7769 H           1 Y27       0.0293
     22 H4         12.1252    8.6119    1.9089 H           1 Y27       0.0271
     23 H5         13.3142    7.3231    1.9057 H           1 Y27       0.0271
     24 H6         13.3954    8.9339    3.8348 H           1 Y27       0.0355
     25 H7         11.1616    9.4335    4.2658 H           1 Y27       0.0271
     26 H8         11.7183    8.6408    5.7225 H           1 Y27       0.0271
     27 H9         10.5224    6.5615    5.0571 H           1 Y27       0.0293
     28 H10         9.4179    7.9063    5.0051 H           1 Y27       0.0293
     29 H11        13.9437    6.1638    3.8719 H           1 Y27       0.0850
     30 H12        15.6095    6.6612    5.5843 H           1 Y27       0.0284
     31 H13        14.8443    8.2288    5.9208 H           1 Y27       0.0284
     32 H14        15.5977    7.9167    4.3418 H           1 Y27       0.0284
     33 H15        12.2463    5.6252    5.3212 H           1 Y27       0.1997
     34 H16        12.6622    6.8238    6.4068 H           1 Y27       0.1997
     35 H17        13.6999    5.5657    6.1357 H           1 Y27       0.1997
     36 H18        10.3241    8.2609    0.7584 H           1 Y27       0.2307
     37 H19         9.6348    8.7320   -1.3969 H           1 Y27       0.0596
     38 H20         8.6499   10.3856   -2.8759 H           1 Y27       0.0771
     39 H21         7.2359   12.5236    0.3650 H           1 Y27       0.0771
     40 H22         8.1482   10.8981    1.9080 H           1 Y27       0.0596
@<TRIPOS>BOND
     1     1     2   2
     2     2     3   1
     3     2    12  am
     4     3     4   1
     5     3     8   1
     6     4     5   1
     7     5     6   1
     8     6     7   1
     9     6     9   1
    10     7     8   1
    11     9    10   1
    12     9    11   1
    13    12    13   1
    14    13    14  ar
    15    13    18  ar
    16    14    15  ar
    17    15    16  ar
    18    16    17  ar
    19    17    18  ar
    20     3    19   1
    21     4    20   1
    22     4    21   1
    23     5    22   1
    24     5    23   1
    25     6    24   1
    26     7    25   1
    27     7    26   1
    28     8    27   1
    29     8    28   1
    30     9    29   1
    31    10    30   1
    32    10    31   1
    33    10    32   1
    34    11    33   1
    35    11    34   1
    36    11    35   1
    37    12    36   1
    38    14    37   1
    39    15    38   1
    40    17    39   1
    41    18    40   1
@<TRIPOS>SUBSTRUCTURE
     1  Y27      2

