@<TRIPOS>MOLECULE
1q8t_ligand_047
    40    41
SMALL
GAST_HUCK
****
This file was generated by PARSER (from files_GN.cpp)

@<TRIPOS>ATOM
      1 O23        14.3228   11.4762    1.3245 O.2         1 Y27      -0.3826
      2 C22        13.6293   10.5381    0.9519 C.2         1 Y27       0.2105
      3 C31        12.1750   10.6680    1.0287 C.3         1 Y27       0.0554
      4 C36        11.4980   10.6739   -0.3764 C.3         1 Y27      -0.0322
      5 C35         9.9532   10.7842   -0.2778 C.3         1 Y27      -0.0428
      6 C34         9.3426    9.6727    0.6351 C.3         1 Y27       0.0020
      7 C33        10.0143    9.7020    2.0433 C.3         1 Y27      -0.0428
      8 C32        11.5578    9.5708    1.9499 C.3         1 Y27      -0.0322
      9 C41         7.7769    9.6820    0.7067 C.3         1 Y27      -0.0244
     10 C42         7.1187   10.9772    1.2466 C.3         1 Y27      -0.0215
     11 N43         7.2135    9.3846   -0.6195 N.4         1 Y27       0.2207
     12 N21        14.1828    9.4390    0.4465 N.am        1 Y27      -0.2247
     13 C14        15.5065    9.1187    0.3714 C.ar        1 Y27       0.0867
     14 C15        16.4266    9.3580    1.4198 C.ar        1 Y27      -0.0140
     15 C16        17.7631    8.9413    1.2764 C.ar        1 Y27      -0.0065
     16 N11        18.1589    8.3181    0.1384 N.ar        1 Y27      -0.3199
     17 C12        17.3078    8.0718   -0.8894 C.ar        1 Y27      -0.0065
     18 C13        15.9569    8.4497   -0.7871 C.ar        1 Y27      -0.0140
     19 H1         11.9381   11.6341    1.4910 H           1 Y27       0.0544
     20 H2         11.7422    9.7606   -0.9224 H           1 Y27       0.0293
     21 H3         11.8745   11.5194   -0.9588 H           1 Y27       0.0293
     22 H4          9.5359   10.7082   -1.2844 H           1 Y27       0.0271
     23 H5          9.7010   11.7720    0.1114 H           1 Y27       0.0271
     24 H6          9.6149    8.7099    0.1864 H           1 Y27       0.0355
     25 H7          9.6296    8.8798    2.6533 H           1 Y27       0.0271
     26 H8          9.7760   10.6377    2.5546 H           1 Y27       0.0271
     27 H9         11.9777    9.6607    2.9564 H           1 Y27       0.0293
     28 H10        11.8058    8.5736    1.5730 H           1 Y27       0.0293
     29 H11         7.4648    8.8602    1.3583 H           1 Y27       0.0850
     30 H12         6.0350   10.8508    1.2956 H           1 Y27       0.0284
     31 H13         7.3336   11.8257    0.5960 H           1 Y27       0.0284
     32 H14         7.4765   11.2005    2.2517 H           1 Y27       0.0284
     33 H15         7.6207    8.5147   -0.9660 H           1 Y27       0.1997
     34 H16         7.4318   10.1444   -1.2670 H           1 Y27       0.1997
     35 H17         6.1984    9.2855   -0.5536 H           1 Y27       0.1997
     36 H18        13.5783    8.8150    0.0191 H           1 Y27       0.2307
     37 H19        16.1288    9.8000    2.2917 H           1 Y27       0.0596
     38 H20        18.4387    9.0989    2.0253 H           1 Y27       0.0771
     39 H21        17.6520    7.6139   -1.7349 H           1 Y27       0.0771
     40 H22        15.3151    8.2555   -1.5609 H           1 Y27       0.0596
@<TRIPOS>BOND
     1     1     2   2
     2     2     3   1
     3     2    12  am
     4     3     4   1
     5     3     8   1
     6     4     5   1
     7     5     6   1
     8     6     7   1
     9     6     9   1
    10     7     8   1
    11     9    10   1
    12     9    11   1
    13    12    13   1
    14    13    14  ar
    15    13    18  ar
    16    14    15  ar
    17    15    16  ar
    18    16    17  ar
    19    17    18  ar
    20     3    19   1
    21     4    20   1
    22     4    21   1
    23     5    22   1
    24     5    23   1
    25     6    24   1
    26     7    25   1
    27     7    26   1
    28     8    27   1
    29     8    28   1
    30     9    29   1
    31    10    30   1
    32    10    31   1
    33    10    32   1
    34    11    33   1
    35    11    34   1
    36    11    35   1
    37    12    36   1
    38    14    37   1
    39    15    38   1
    40    17    39   1
    41    18    40   1
@<TRIPOS>SUBSTRUCTURE
     1  Y27      2

