@<TRIPOS>MOLECULE
1q8t_ligand_002
    40    41
SMALL
GAST_HUCK
****
This file was generated by PARSER (from files_GN.cpp)

@<TRIPOS>ATOM
      1 O23        15.4727    7.8273    3.9431 O.2         1 Y27      -0.3826
      2 C22        16.5909    8.0640    3.4632 C.2         1 Y27       0.2105
      3 C31        16.7433    8.0696    2.0094 C.3         1 Y27       0.0554
      4 C36        15.6871    7.1857    1.2668 C.3         1 Y27      -0.0322
      5 C35        15.8645    7.2366   -0.2699 C.3         1 Y27      -0.0428
      6 C34        15.8025    8.6920   -0.8423 C.3         1 Y27       0.0020
      7 C33        16.8365    9.5906   -0.0813 C.3         1 Y27      -0.0428
      8 C32        16.6928    9.5307    1.4566 C.3         1 Y27      -0.0322
      9 C41        15.9719    8.8189   -2.3972 C.3         1 Y27      -0.0244
     10 C42        16.0495    7.4872   -3.2031 C.3         1 Y27      -0.0215
     11 N43        14.8510    9.5994   -2.9560 N.4         1 Y27       0.2207
     12 N21        17.6402    8.3009    4.2620 N.am        1 Y27      -0.2247
     13 C14        17.7356    8.4292    5.6230 C.ar        1 Y27       0.0867
     14 C15        16.7409    8.9475    6.4830 C.ar        1 Y27      -0.0140
     15 C16        17.0058    9.0884    7.8590 C.ar        1 Y27      -0.0065
     16 N11        18.2188    8.7251    8.3557 N.ar        1 Y27      -0.3199
     17 C12        19.2068    8.2376    7.5715 C.ar        1 Y27      -0.0065
     18 C13        18.9869    8.0727    6.1916 C.ar        1 Y27      -0.0140
     19 H1         17.7330    7.6585    1.7587 H           1 Y27       0.0544
     20 H2         14.6752    7.5299    1.5127 H           1 Y27       0.0293
     21 H3         15.7734    6.1475    1.6141 H           1 Y27       0.0293
     22 H4         15.0648    6.6353   -0.7116 H           1 Y27       0.0271
     23 H5         16.8223    6.7792   -0.5330 H           1 Y27       0.0271
     24 H6         14.8068    9.0717   -0.5898 H           1 Y27       0.0355
     25 H7         16.7214   10.6341   -0.4017 H           1 Y27       0.0271
     26 H8         17.8545    9.2798   -0.3527 H           1 Y27       0.0271
     27 H9         17.5044   10.1122    1.9138 H           1 Y27       0.0293
     28 H10        15.7457    9.9958    1.7447 H           1 Y27       0.0293
     29 H11        16.8972    9.3634   -2.6281 H           1 Y27       0.0850
     30 H12        16.1364    7.6884   -4.2692 H           1 Y27       0.0284
     31 H13        15.1566    6.8787   -3.0350 H           1 Y27       0.0284
     32 H14        16.9317    6.9110   -2.9039 H           1 Y27       0.0284
     33 H15        14.7731   10.4874   -2.4639 H           1 Y27       0.1997
     34 H16        13.9893    9.0516   -2.8274 H           1 Y27       0.1997
     35 H17        15.0027    9.7744   -3.9483 H           1 Y27       0.1997
     36 H18        18.4776    8.3959    3.7896 H           1 Y27       0.2307
     37 H19        15.8338    9.2449    6.1297 H           1 Y27       0.0596
     38 H20        16.2934    9.4661    8.4851 H           1 Y27       0.0771
     39 H21        20.1049    7.9885    7.9897 H           1 Y27       0.0771
     40 H22        19.7412    7.7004    5.6164 H           1 Y27       0.0596
@<TRIPOS>BOND
     1     1     2   2
     2     2     3   1
     3     2    12  am
     4     3     4   1
     5     3     8   1
     6     4     5   1
     7     5     6   1
     8     6     7   1
     9     6     9   1
    10     7     8   1
    11     9    10   1
    12     9    11   1
    13    12    13   1
    14    13    14  ar
    15    13    18  ar
    16    14    15  ar
    17    15    16  ar
    18    16    17  ar
    19    17    18  ar
    20     3    19   1
    21     4    20   1
    22     4    21   1
    23     5    22   1
    24     5    23   1
    25     6    24   1
    26     7    25   1
    27     7    26   1
    28     8    27   1
    29     8    28   1
    30     9    29   1
    31    10    30   1
    32    10    31   1
    33    10    32   1
    34    11    33   1
    35    11    34   1
    36    11    35   1
    37    12    36   1
    38    14    37   1
    39    15    38   1
    40    17    39   1
    41    18    40   1
@<TRIPOS>SUBSTRUCTURE
     1  Y27      2

