@<TRIPOS>MOLECULE
1q8t_ligand_059
    40    41
SMALL
GAST_HUCK
****
This file was generated by PARSER (from files_GN.cpp)

@<TRIPOS>ATOM
      1 O23        18.2656   10.6217    1.1938 O.2         1 Y27      -0.3826
      2 C22        17.5273    9.7133    0.8278 C.2         1 Y27       0.2105
      3 C31        17.1097    9.6656   -0.5724 C.3         1 Y27       0.0554
      4 C36        17.5934    8.3663   -1.2908 C.3         1 Y27      -0.0322
      5 C35        17.1412    8.3308   -2.7731 C.3         1 Y27      -0.0428
      6 C34        15.5950    8.5014   -2.9298 C.3         1 Y27       0.0020
      7 C33        15.1201    9.7986   -2.2044 C.3         1 Y27      -0.0428
      8 C32        15.5673    9.8307   -0.7185 C.3         1 Y27      -0.0322
      9 C41        15.0827    8.4149   -4.4151 C.3         1 Y27      -0.0244
     10 C42        16.0133    9.0111   -5.5073 C.3         1 Y27      -0.0215
     11 N43        14.7930    7.0132   -4.7695 N.4         1 Y27       0.2207
     12 N21        17.1549    8.7493    1.6592 N.am        1 Y27      -0.2247
     13 C14        17.4268    8.5941    2.9871 C.ar        1 Y27       0.0867
     14 C15        17.5546    9.6561    3.9151 C.ar        1 Y27      -0.0140
     15 C16        17.7876    9.3662    5.2742 C.ar        1 Y27      -0.0065
     16 N11        17.8838    8.0765    5.6880 N.ar        1 Y27      -0.3199
     17 C12        17.7577    7.0314    4.8297 C.ar        1 Y27      -0.0065
     18 C13        17.5147    7.2701    3.4640 C.ar        1 Y27      -0.0140
     19 H1         17.5668   10.5073   -1.1057 H           1 Y27       0.0544
     20 H2         17.1996    7.4782   -0.7887 H           1 Y27       0.0293
     21 H3         18.6862    8.3124   -1.2597 H           1 Y27       0.0293
     22 H4         17.4489    7.3802   -3.2201 H           1 Y27       0.0271
     23 H5         17.6627    9.1340   -3.3042 H           1 Y27       0.0271
     24 H6         15.1326    7.6728   -2.3823 H           1 Y27       0.0355
     25 H7         14.0291    9.8561   -2.2348 H           1 Y27       0.0271
     26 H8         15.5155   10.6767   -2.7213 H           1 Y27       0.0271
     27 H9         15.2573   10.7806   -0.2765 H           1 Y27       0.0293
     28 H10        15.0537    9.0307   -0.1774 H           1 Y27       0.0293
     29 H11        14.1260    8.9374   -4.4942 H           1 Y27       0.0850
     30 H12        15.5374    8.9505   -6.4879 H           1 Y27       0.0284
     31 H13        16.9575    8.4610   -5.5557 H           1 Y27       0.0284
     32 H14        16.2267   10.0591   -5.2910 H           1 Y27       0.0284
     33 H15        14.1462    6.6135   -4.0811 H           1 Y27       0.1997
     34 H16        15.6603    6.4698   -4.7742 H           1 Y27       0.1997
     35 H17        14.3607    6.9741   -5.6958 H           1 Y27       0.1997
     36 H18        16.6662    8.0158    1.2559 H           1 Y27       0.2307
     37 H19        17.4488   10.6313    3.6253 H           1 Y27       0.0596
     38 H20        17.8755   10.1217    5.9599 H           1 Y27       0.0771
     39 H21        17.8301    6.0755    5.1834 H           1 Y27       0.0771
     40 H22        17.4126    6.4753    2.8259 H           1 Y27       0.0596
@<TRIPOS>BOND
     1     1     2   2
     2     2     3   1
     3     2    12  am
     4     3     4   1
     5     3     8   1
     6     4     5   1
     7     5     6   1
     8     6     7   1
     9     6     9   1
    10     7     8   1
    11     9    10   1
    12     9    11   1
    13    12    13   1
    14    13    14  ar
    15    13    18  ar
    16    14    15  ar
    17    15    16  ar
    18    16    17  ar
    19    17    18  ar
    20     3    19   1
    21     4    20   1
    22     4    21   1
    23     5    22   1
    24     5    23   1
    25     6    24   1
    26     7    25   1
    27     7    26   1
    28     8    27   1
    29     8    28   1
    30     9    29   1
    31    10    30   1
    32    10    31   1
    33    10    32   1
    34    11    33   1
    35    11    34   1
    36    11    35   1
    37    12    36   1
    38    14    37   1
    39    15    38   1
    40    17    39   1
    41    18    40   1
@<TRIPOS>SUBSTRUCTURE
     1  Y27      2

