@<TRIPOS>MOLECULE
1q8t_ligand_084
    40    41
SMALL
GAST_HUCK
****
This file was generated by PARSER (from files_GN.cpp)

@<TRIPOS>ATOM
      1 O23        15.3245    9.0438   -1.6326 O.2         1 Y27      -0.3826
      2 C22        15.0318    9.6130   -0.5897 C.2         1 Y27       0.2105
      3 C31        15.0523    8.8639    0.6646 C.3         1 Y27       0.0554
      4 C36        15.1260    7.3070    0.5085 C.3         1 Y27      -0.0322
      5 C35        15.1742    6.5744    1.8737 C.3         1 Y27      -0.0428
      6 C34        16.3583    7.0633    2.7611 C.3         1 Y27       0.0020
      7 C33        16.2849    8.6134    2.9328 C.3         1 Y27      -0.0428
      8 C32        16.2217    9.3547    1.5716 C.3         1 Y27      -0.0322
      9 C41        16.4360    6.2657    4.1082 C.3         1 Y27      -0.0244
     10 C42        17.6373    6.6658    5.0003 C.3         1 Y27      -0.0215
     11 N43        15.2072    6.3623    4.9152 N.4         1 Y27       0.2207
     12 N21        14.7412   10.9118   -0.5574 N.am        1 Y27      -0.2247
     13 C14        14.6538   11.8249   -1.5680 C.ar        1 Y27       0.0867
     14 C15        14.4393   11.5113   -2.9325 C.ar        1 Y27      -0.0140
     15 C16        14.3390   12.5420   -3.8811 C.ar        1 Y27      -0.0065
     16 N11        14.4449   13.8341   -3.4861 N.ar        1 Y27      -0.3199
     17 C12        14.6442   14.1857   -2.1908 C.ar        1 Y27      -0.0065
     18 C13        14.7437   13.1881   -1.2030 C.ar        1 Y27      -0.0140
     19 H1         14.1031    9.0806    1.1695 H           1 Y27       0.0544
     20 H2         16.0134    7.0256   -0.0689 H           1 Y27       0.0293
     21 H3         14.2493    6.9465   -0.0378 H           1 Y27       0.0293
     22 H4         15.2776    5.5009    1.6971 H           1 Y27       0.0271
     23 H5         14.2269    6.7404    2.3937 H           1 Y27       0.0271
     24 H6         17.2876    6.8417    2.2177 H           1 Y27       0.0355
     25 H7         17.1726    8.9724    3.4623 H           1 Y27       0.0271
     26 H8         15.4042    8.8773    3.5287 H           1 Y27       0.0271
     27 H9         16.1095   10.4190    1.7791 H           1 Y27       0.0293
     28 H10        17.1709    9.2129    1.0502 H           1 Y27       0.0293
     29 H11        16.5641    5.2066    3.8583 H           1 Y27       0.0850
     30 H12        17.7376    5.9400    5.8076 H           1 Y27       0.0284
     31 H13        17.4863    7.6516    5.4431 H           1 Y27       0.0284
     32 H14        18.5671    6.6723    4.4251 H           1 Y27       0.0284
     33 H15        14.4144    5.9899    4.3889 H           1 Y27       0.1997
     34 H16        15.0259    7.3391    5.1599 H           1 Y27       0.1997
     35 H17        15.3217    5.8170    5.7741 H           1 Y27       0.1997
     36 H18        14.6050   11.2799    0.3300 H           1 Y27       0.2307
     37 H19        14.3233   10.5512   -3.2502 H           1 Y27       0.0596
     38 H20        14.1832   12.3233   -4.8678 H           1 Y27       0.0771
     39 H21        14.7188   15.1751   -1.9407 H           1 Y27       0.0771
     40 H22        14.8935   13.4648   -0.2297 H           1 Y27       0.0596
@<TRIPOS>BOND
     1     1     2   2
     2     2     3   1
     3     2    12  am
     4     3     4   1
     5     3     8   1
     6     4     5   1
     7     5     6   1
     8     6     7   1
     9     6     9   1
    10     7     8   1
    11     9    10   1
    12     9    11   1
    13    12    13   1
    14    13    14  ar
    15    13    18  ar
    16    14    15  ar
    17    15    16  ar
    18    16    17  ar
    19    17    18  ar
    20     3    19   1
    21     4    20   1
    22     4    21   1
    23     5    22   1
    24     5    23   1
    25     6    24   1
    26     7    25   1
    27     7    26   1
    28     8    27   1
    29     8    28   1
    30     9    29   1
    31    10    30   1
    32    10    31   1
    33    10    32   1
    34    11    33   1
    35    11    34   1
    36    11    35   1
    37    12    36   1
    38    14    37   1
    39    15    38   1
    40    17    39   1
    41    18    40   1
@<TRIPOS>SUBSTRUCTURE
     1  Y27      2

