@<TRIPOS>MOLECULE
1q8t_ligand_021
    40    41
SMALL
GAST_HUCK
****
This file was generated by PARSER (from files_GN.cpp)

@<TRIPOS>ATOM
      1 O23         8.4518   10.2342    1.8118 O.2         1 Y27      -0.3826
      2 C22         8.9882   10.1461    2.9079 C.2         1 Y27       0.2105
      3 C31         8.2206    9.5919    4.0284 C.3         1 Y27       0.0554
      4 C36         7.3316   10.6743    4.7126 C.3         1 Y27      -0.0322
      5 C35         6.0330   10.9713    3.9162 C.3         1 Y27      -0.0428
      6 C34         5.1503    9.7022    3.7044 C.3         1 Y27       0.0020
      7 C33         6.0139    8.6284    2.9629 C.3         1 Y27      -0.0428
      8 C32         7.3691    8.3240    3.6715 C.3         1 Y27      -0.0322
      9 C41         4.4508    9.1442    4.9968 C.3         1 Y27      -0.0244
     10 C42         3.7914   10.2103    5.9089 C.3         1 Y27      -0.0215
     11 N43         3.3985    8.1786    4.6322 N.4         1 Y27       0.2207
     12 N21        10.1792   10.7091    3.1121 N.am        1 Y27      -0.2247
     13 C14        11.0467   11.2215    2.1820 C.ar        1 Y27       0.0867
     14 C15        11.1365   10.7427    0.8525 C.ar        1 Y27      -0.0140
     15 C16        12.0487   11.3311   -0.0428 C.ar        1 Y27      -0.0065
     16 N11        12.8508   12.3384    0.3835 N.ar        1 Y27      -0.3199
     17 C12        12.8145   12.8137    1.6526 C.ar        1 Y27      -0.0065
     18 C13        11.9190   12.2572    2.5814 C.ar        1 Y27      -0.0140
     19 H1          8.9463    9.2610    4.7807 H           1 Y27       0.0544
     20 H2          7.8969   11.6012    4.8406 H           1 Y27       0.0293
     21 H3          7.0579   10.3347    5.7159 H           1 Y27       0.0293
     22 H4          6.3015   11.3759    2.9374 H           1 Y27       0.0271
     23 H5          5.4681   11.7555    4.4214 H           1 Y27       0.0271
     24 H6          4.3466    9.9991    3.0222 H           1 Y27       0.0355
     25 H7          6.2165    8.9781    1.9471 H           1 Y27       0.0271
     26 H8          5.4503    7.6998    2.8536 H           1 Y27       0.0271
     27 H9          7.1514    7.7733    4.5911 H           1 Y27       0.0293
     28 H10         7.9537    7.6480    3.0420 H           1 Y27       0.0293
     29 H11         5.1777    8.6091    5.6089 H           1 Y27       0.0850
     30 H12         3.1927    9.7347    6.6882 H           1 Y27       0.0284
     31 H13         3.1451   10.8691    5.3274 H           1 Y27       0.0284
     32 H14         4.5556   10.8085    6.4056 H           1 Y27       0.0284
     33 H15         3.7999    7.3825    4.1407 H           1 Y27       0.1997
     34 H16         2.7129    8.6276    4.0227 H           1 Y27       0.1997
     35 H17         2.9319    7.8462    5.4799 H           1 Y27       0.1997
     36 H18        10.4510   10.8078    4.0400 H           1 Y27       0.2307
     37 H19        10.5608    9.9602    0.5364 H           1 Y27       0.0596
     38 H20        12.1206   11.0025   -1.0092 H           1 Y27       0.0771
     39 H21        13.4501   13.5641    1.9274 H           1 Y27       0.0771
     40 H22        11.8996   12.6202    3.5319 H           1 Y27       0.0596
@<TRIPOS>BOND
     1     1     2   2
     2     2     3   1
     3     2    12  am
     4     3     4   1
     5     3     8   1
     6     4     5   1
     7     5     6   1
     8     6     7   1
     9     6     9   1
    10     7     8   1
    11     9    10   1
    12     9    11   1
    13    12    13   1
    14    13    14  ar
    15    13    18  ar
    16    14    15  ar
    17    15    16  ar
    18    16    17  ar
    19    17    18  ar
    20     3    19   1
    21     4    20   1
    22     4    21   1
    23     5    22   1
    24     5    23   1
    25     6    24   1
    26     7    25   1
    27     7    26   1
    28     8    27   1
    29     8    28   1
    30     9    29   1
    31    10    30   1
    32    10    31   1
    33    10    32   1
    34    11    33   1
    35    11    34   1
    36    11    35   1
    37    12    36   1
    38    14    37   1
    39    15    38   1
    40    17    39   1
    41    18    40   1
@<TRIPOS>SUBSTRUCTURE
     1  Y27      2

