@<TRIPOS>MOLECULE
1q8u_ligand_029
    44    46
SMALL
GAST_HUCK
****
This file was generated by PARSER (from files_GN.cpp)

@<TRIPOS>ATOM
      1 O1          6.8416   10.1794    0.5569 O.2         1 H52      -0.1497
      2 S5          7.8731   10.2480    1.7692 S.o2        1 H52       0.0732
      3 O2          8.2701   11.7601    1.4703 O.2         1 H52      -0.1497
      4 N21         9.3406    9.4330    1.4673 N.am        1 H52      -0.2257
      5 C22         9.4833    8.6188    0.2774 C.3         1 H52       0.0778
      6 C2M         9.7999    9.5369   -0.9371 C.3         1 H52      -0.0402
      7 C23        10.5374    7.4645    0.3586 C.3         1 H52      -0.0136
      8 N24        10.5136    6.6533    1.5945 N.4         1 H52       0.2284
      9 C25        11.1809    7.2115    2.7944 C.3         1 H52      -0.0321
     10 C26        10.5706    8.5100    3.3781 C.3         1 H52       0.0045
     11 C27        10.4614    9.6654    2.3517 C.3         1 H52       0.0350
     12 C5          7.1425   10.3066    3.3696 C.ar        1 H52       0.1228
     13 C10         5.7488   10.1295    3.6891 C.ar        1 H52       0.0294
     14 C4          4.7564    9.5126    2.8532 C.ar        1 H52      -0.0110
     15 CM          5.0288    8.5839    1.7223 C.3         1 H52      -0.0231
     16 C9          5.3049   10.6225    4.9642 C.ar        1 H52       0.0043
     17 C8          6.2142   11.0859    5.9345 C.ar        1 H52      -0.0481
     18 C7          7.5789   11.1300    5.6475 C.ar        1 H52      -0.0552
     19 C6          8.0283   10.7730    4.3743 C.ar        1 H52      -0.0302
     20 C1          3.9306   10.6515    5.2731 C.ar        1 H52       0.0104
     21 N2          3.0242   10.1797    4.3930 N.ar        1 H52      -0.3085
     22 C3          3.3916    9.6258    3.2189 C.ar        1 H52       0.0074
     23 H1          8.5219    8.1321    0.0805 H           1 H52       0.0564
     24 H2          9.8720    8.9528   -1.8561 H           1 H52       0.0250
     25 H3         10.7460   10.0612   -0.7881 H           1 H52       0.0250
     26 H4          9.0180   10.2835   -1.0792 H           1 H52       0.0250
     27 H5         11.5519    7.8484    0.2021 H           1 H52       0.0832
     28 H6         10.3340    6.7668   -0.4563 H           1 H52       0.0832
     29 H7         11.0279    5.7924    1.3781 H           1 H52       0.2014
     30 H8          9.5458    6.3993    1.7897 H           1 H52       0.2014
     31 H9         12.2386    7.3806    2.5649 H           1 H52       0.0814
     32 H10        11.1418    6.4437    3.5704 H           1 H52       0.0814
     33 H11        11.2106    8.8362    4.2051 H           1 H52       0.0333
     34 H12         9.5836    8.2816    3.7958 H           1 H52       0.0333
     35 H13        10.3554   10.6083    2.8978 H           1 H52       0.0480
     36 H14        11.3933    9.7467    1.7808 H           1 H52       0.0480
     37 H15         4.3076    7.7552    1.7200 H           1 H52       0.0421
     38 H16         6.0183    8.1241    1.8109 H           1 H52       0.0421
     39 H17         4.9383    9.1162    0.7682 H           1 H52       0.0421
     40 H18         5.8954   11.3909    6.8610 H           1 H52       0.0643
     41 H19         8.2424   11.4711    6.3491 H           1 H52       0.0642
     42 H20         9.0297   10.9016    4.1850 H           1 H52       0.0657
     43 H21         3.5893   11.0315    6.1584 H           1 H52       0.0786
     44 H22         2.6522    9.2330    2.6320 H           1 H52       0.0687
@<TRIPOS>BOND
     1     1     2   2
     2     2     3   2
     3     2     4  am
     4     2    12   1
     5     4     5   1
     6     4    11   1
     7     5     6   1
     8     5     7   1
     9     7     8   1
    10     8     9   1
    11     9    10   1
    12    10    11   1
    13    12    13  ar
    14    12    19  ar
    15    13    14  ar
    16    13    16  ar
    17    14    15   1
    18    14    22  ar
    19    16    17  ar
    20    16    20  ar
    21    17    18  ar
    22    18    19  ar
    23    20    21  ar
    24    21    22  ar
    25     5    23   1
    26     6    24   1
    27     6    25   1
    28     6    26   1
    29     7    27   1
    30     7    28   1
    31     8    29   1
    32     8    30   1
    33     9    31   1
    34     9    32   1
    35    10    33   1
    36    10    34   1
    37    11    35   1
    38    11    36   1
    39    15    37   1
    40    15    38   1
    41    15    39   1
    42    17    40   1
    43    18    41   1
    44    19    42   1
    45    20    43   1
    46    22    44   1
@<TRIPOS>SUBSTRUCTURE
     1  H52      5

