@<TRIPOS>MOLECULE
1q8u_ligand_040
    44    46
SMALL
GAST_HUCK
****
This file was generated by PARSER (from files_GN.cpp)

@<TRIPOS>ATOM
      1 O1         15.3645   10.4801   -0.2415 O.2         1 H52      -0.1497
      2 S5         14.5736   10.9339   -1.5479 S.o2        1 H52       0.0732
      3 O2         13.2063   10.1227   -1.4422 O.2         1 H52      -0.1497
      4 N21        15.4644   10.2968   -2.8628 N.am        1 H52      -0.2257
      5 C22        14.7879    9.7781   -4.0452 C.3         1 H52       0.0778
      6 C2M        14.7499   10.8230   -5.1978 C.3         1 H52      -0.0402
      7 C23        15.3507    8.4192   -4.5641 C.3         1 H52      -0.0136
      8 N24        15.7276    7.5039   -3.4617 N.4         1 H52       0.2284
      9 C25        17.1236    7.6249   -2.9726 C.3         1 H52      -0.0321
     10 C26        17.4009    8.8921   -2.1264 C.3         1 H52       0.0045
     11 C27        16.9095   10.2301   -2.7462 C.3         1 H52       0.0350
     12 C5         14.1879   12.6427   -1.5187 C.ar        1 H52       0.1228
     13 C10        13.4983   13.4034   -0.4965 C.ar        1 H52       0.0294
     14 C4         13.2174   13.0002    0.8633 C.ar        1 H52      -0.0110
     15 CM         13.7236   11.7831    1.5553 C.3         1 H52      -0.0231
     16 C9         13.0489   14.7176   -0.8741 C.ar        1 H52       0.0043
     17 C8         13.3072   15.2706   -2.1425 C.ar        1 H52      -0.0481
     18 C7         14.0485   14.5515   -3.0741 C.ar        1 H52      -0.0552
     19 C6         14.5029   13.2708   -2.7519 C.ar        1 H52      -0.0302
     20 C1         12.3171   15.5164    0.0264 C.ar        1 H52       0.0104
     21 N2         12.0507   15.0718    1.2611 N.ar        1 H52      -0.3085
     22 C3         12.4686   13.8741    1.6961 C.ar        1 H52       0.0074
     23 H1         13.7432    9.5786   -3.8055 H           1 H52       0.0564
     24 H2         14.3622   10.3803   -6.1198 H           1 H52       0.0250
     25 H3         15.7545   11.2116   -5.3969 H           1 H52       0.0250
     26 H4         14.0969   11.6518   -4.9265 H           1 H52       0.0250
     27 H5         16.2062    8.5764   -5.2340 H           1 H52       0.0832
     28 H6         14.5790    7.9104   -5.1483 H           1 H52       0.0832
     29 H7         15.6065    6.5392   -3.7834 H           1 H52       0.2014
     30 H8         15.0761    7.6656   -2.6867 H           1 H52       0.2014
     31 H9         17.8274    7.5836   -3.8121 H           1 H52       0.0814
     32 H10        17.3201    6.7486   -2.3493 H           1 H52       0.0814
     33 H11        18.4819    8.9635   -1.9662 H           1 H52       0.0333
     34 H12        16.9420    8.7488   -1.1448 H           1 H52       0.0333
     35 H13        17.2694   11.0587   -2.1326 H           1 H52       0.0480
     36 H14        17.3792   10.3531   -3.7228 H           1 H52       0.0480
     37 H15        13.4021   11.7035    2.5976 H           1 H52       0.0421
     38 H16        14.8084   11.8075    1.5741 H           1 H52       0.0421
     39 H17        13.3680   10.8852    1.0710 H           1 H52       0.0421
     40 H18        12.9803   16.2046   -2.3968 H           1 H52       0.0643
     41 H19        14.2429   14.9525   -3.9965 H           1 H52       0.0642
     42 H20        15.0509   12.7949   -3.4610 H           1 H52       0.0657
     43 H21        11.9826   16.4507   -0.2278 H           1 H52       0.0786
     44 H22        12.2476   13.6367    2.6689 H           1 H52       0.0687
@<TRIPOS>BOND
     1     1     2   2
     2     2     3   2
     3     2     4  am
     4     2    12   1
     5     4     5   1
     6     4    11   1
     7     5     6   1
     8     5     7   1
     9     7     8   1
    10     8     9   1
    11     9    10   1
    12    10    11   1
    13    12    13  ar
    14    12    19  ar
    15    13    14  ar
    16    13    16  ar
    17    14    15   1
    18    14    22  ar
    19    16    17  ar
    20    16    20  ar
    21    17    18  ar
    22    18    19  ar
    23    20    21  ar
    24    21    22  ar
    25     5    23   1
    26     6    24   1
    27     6    25   1
    28     6    26   1
    29     7    27   1
    30     7    28   1
    31     8    29   1
    32     8    30   1
    33     9    31   1
    34     9    32   1
    35    10    33   1
    36    10    34   1
    37    11    35   1
    38    11    36   1
    39    15    37   1
    40    15    38   1
    41    15    39   1
    42    17    40   1
    43    18    41   1
    44    19    42   1
    45    20    43   1
    46    22    44   1
@<TRIPOS>SUBSTRUCTURE
     1  H52      5

