@<TRIPOS>MOLECULE
1q8u_ligand_030
    44    46
SMALL
GAST_HUCK
****
This file was generated by PARSER (from files_GN.cpp)

@<TRIPOS>ATOM
      1 O1          8.7293   11.3474    1.5100 O.2         1 H52      -0.1497
      2 S5          8.4655   10.7456    2.9569 S.o2        1 H52       0.0732
      3 O2          9.3501   11.7605    3.8245 O.2         1 H52      -0.1497
      4 N21         9.2899    9.2562    2.8846 N.am        1 H52      -0.2257
      5 C22         8.6854    8.0654    3.4608 C.3         1 H52       0.0778
      6 C2M         7.4624    7.5962    2.6183 C.3         1 H52      -0.0402
      7 C23         9.6664    6.8787    3.7144 C.3         1 H52      -0.0136
      8 N24        10.0588    6.1592    2.4809 N.4         1 H52       0.2284
      9 C25        11.0863    6.7893    1.6305 C.3         1 H52      -0.0321
     10 C26        10.7456    8.2063    1.1135 C.3         1 H52       0.0045
     11 C27        10.5875    9.2629    2.2389 C.3         1 H52       0.0350
     12 C5          6.7323   10.7560    3.3152 C.ar        1 H52       0.1228
     13 C10         6.0751   10.6568    4.6009 C.ar        1 H52       0.0294
     14 C4          6.6704   10.8117    5.9128 C.ar        1 H52      -0.0110
     15 CM          8.0808   11.1887    6.1997 C.3         1 H52      -0.0231
     16 C9          4.6551   10.3792    4.5892 C.ar        1 H52       0.0043
     17 C8          3.9262   10.2691    3.3870 C.ar        1 H52      -0.0481
     18 C7          4.5590   10.4679    2.1638 C.ar        1 H52      -0.0552
     19 C6          5.9367   10.7026    2.1341 C.ar        1 H52      -0.0302
     20 C1          3.9337   10.2356    5.7911 C.ar        1 H52       0.0104
     21 N2          4.5401   10.4098    6.9761 N.ar        1 H52      -0.3085
     22 C3          5.8554   10.6936    7.0609 C.ar        1 H52       0.0074
     23 H1          8.3100    8.3335    4.4506 H           1 H52       0.0564
     24 H2          7.2086    6.5544    2.8372 H           1 H52       0.0250
     25 H3          7.6730    7.6899    1.5462 H           1 H52       0.0250
     26 H4          6.5768    8.1906    2.8425 H           1 H52       0.0250
     27 H5          9.1677    6.1506    4.3494 H           1 H52       0.0832
     28 H6         10.5477    7.2178    4.2620 H           1 H52       0.0832
     29 H7          9.2262    5.9878    1.9140 H           1 H52       0.2014
     30 H8         10.4295    5.2548    2.7685 H           1 H52       0.2014
     31 H9         11.2154    6.1417    0.7612 H           1 H52       0.0814
     32 H10        12.0391    6.8117    2.1676 H           1 H52       0.0814
     33 H11         9.8378    8.1692    0.5044 H           1 H52       0.0333
     34 H12        11.5604    8.5229    0.4557 H           1 H52       0.0333
     35 H13        11.3540    9.1249    3.0040 H           1 H52       0.0480
     36 H14        10.8035   10.2322    1.7772 H           1 H52       0.0480
     37 H15         8.3166   11.2282    7.2668 H           1 H52       0.0421
     38 H16         8.2543   12.1918    5.8081 H           1 H52       0.0421
     39 H17         8.7603   10.4520    5.7762 H           1 H52       0.0421
     40 H18         2.9147   10.0785    3.3886 H           1 H52       0.0643
     41 H19         4.0205   10.4148    1.2927 H           1 H52       0.0642
     42 H20         6.3454   10.7885    1.2063 H           1 H52       0.0657
     43 H21         2.9331   10.0269    5.7953 H           1 H52       0.0786
     44 H22         6.2277   10.8383    8.0065 H           1 H52       0.0687
@<TRIPOS>BOND
     1     1     2   2
     2     2     3   2
     3     2     4  am
     4     2    12   1
     5     4     5   1
     6     4    11   1
     7     5     6   1
     8     5     7   1
     9     7     8   1
    10     8     9   1
    11     9    10   1
    12    10    11   1
    13    12    13  ar
    14    12    19  ar
    15    13    14  ar
    16    13    16  ar
    17    14    15   1
    18    14    22  ar
    19    16    17  ar
    20    16    20  ar
    21    17    18  ar
    22    18    19  ar
    23    20    21  ar
    24    21    22  ar
    25     5    23   1
    26     6    24   1
    27     6    25   1
    28     6    26   1
    29     7    27   1
    30     7    28   1
    31     8    29   1
    32     8    30   1
    33     9    31   1
    34     9    32   1
    35    10    33   1
    36    10    34   1
    37    11    35   1
    38    11    36   1
    39    15    37   1
    40    15    38   1
    41    15    39   1
    42    17    40   1
    43    18    41   1
    44    19    42   1
    45    20    43   1
    46    22    44   1
@<TRIPOS>SUBSTRUCTURE
     1  H52      5

