@<TRIPOS>MOLECULE
1q8u_ligand_018
    44    46
SMALL
GAST_HUCK
****
This file was generated by PARSER (from files_GN.cpp)

@<TRIPOS>ATOM
      1 O1         12.1624   10.4453    4.9671 O.2         1 H52      -0.1497
      2 S5         12.3448    9.6779    3.5858 S.o2        1 H52       0.0732
      3 O2         12.5931   11.0272    2.7763 O.2         1 H52      -0.1497
      4 N21        10.8125    8.9909    3.2956 N.am        1 H52      -0.2257
      5 C22        10.2836    7.9821    4.2111 C.3         1 H52       0.0778
      6 C2M         9.5400    8.6442    5.4036 C.3         1 H52      -0.0402
      7 C23         9.3648    6.9013    3.5550 C.3         1 H52      -0.0136
      8 N24         9.9607    6.1578    2.4187 N.4         1 H52       0.2284
      9 C25        10.7061    6.8904    1.3722 C.3         1 H52      -0.0321
     10 C26        10.1203    8.2666    0.9641 C.3         1 H52       0.0045
     11 C27        10.0801    9.3438    2.0927 C.3         1 H52       0.0350
     12 C5         13.6745    8.5317    3.7864 C.ar        1 H52       0.1228
     13 C10        14.5654    7.9856    2.7903 C.ar        1 H52       0.0294
     14 C4         14.7174    8.3944    1.4136 C.ar        1 H52      -0.0110
     15 CM         14.0952    9.5933    0.7961 C.3         1 H52      -0.0231
     16 C9         15.4055    6.8874    3.2084 C.ar        1 H52       0.0043
     17 C8         15.3925    6.3913    4.5266 C.ar        1 H52      -0.0481
     18 C7         14.5450    6.9546    5.4716 C.ar        1 H52      -0.0552
     19 C6         13.7101    8.0103    5.1075 C.ar        1 H52      -0.0302
     20 C1         16.2753    6.2461    2.3035 C.ar        1 H52       0.0104
     21 N2         16.3336    6.6435    1.0208 N.ar        1 H52      -0.3085
     22 C3         15.6017    7.6750    0.5644 C.ar        1 H52       0.0074
     23 H1         11.1135    7.4097    4.6314 H           1 H52       0.0564
     24 H2          9.1417    7.8873    6.0797 H           1 H52       0.0250
     25 H3          8.7161    9.2624    5.0448 H           1 H52       0.0250
     26 H4         10.2152    9.2692    5.9820 H           1 H52       0.0250
     27 H5          8.4250    7.3473    3.2197 H           1 H52       0.0832
     28 H6          9.1033    6.1494    4.3053 H           1 H52       0.0832
     29 H7          9.1936    5.6726    1.9535 H           1 H52       0.2014
     30 H8         10.5850    5.4482    2.8088 H           1 H52       0.2014
     31 H9         10.7287    6.2518    0.4889 H           1 H52       0.0814
     32 H10        11.7385    7.0177    1.7028 H           1 H52       0.0814
     33 H11         9.1105    8.1134    0.5814 H           1 H52       0.0333
     34 H12        10.7185    8.6508    0.1372 H           1 H52       0.0333
     35 H13        10.4246   10.2980    1.6836 H           1 H52       0.0480
     36 H14         9.0352    9.5277    2.3761 H           1 H52       0.0480
     37 H15        14.3638    9.7263   -0.2549 H           1 H52       0.0421
     38 H16        14.4458   10.4824    1.3145 H           1 H52       0.0421
     39 H17        13.0147    9.5241    0.8354 H           1 H52       0.0421
     40 H18        15.9923    5.6118    4.8106 H           1 H52       0.0643
     41 H19        14.5121    6.5742    6.4191 H           1 H52       0.0642
     42 H20        13.0889    8.3501    5.8387 H           1 H52       0.0657
     43 H21        16.8691    5.4679    2.5915 H           1 H52       0.0786
     44 H22        15.7296    7.9269   -0.4168 H           1 H52       0.0687
@<TRIPOS>BOND
     1     1     2   2
     2     2     3   2
     3     2     4  am
     4     2    12   1
     5     4     5   1
     6     4    11   1
     7     5     6   1
     8     5     7   1
     9     7     8   1
    10     8     9   1
    11     9    10   1
    12    10    11   1
    13    12    13  ar
    14    12    19  ar
    15    13    14  ar
    16    13    16  ar
    17    14    15   1
    18    14    22  ar
    19    16    17  ar
    20    16    20  ar
    21    17    18  ar
    22    18    19  ar
    23    20    21  ar
    24    21    22  ar
    25     5    23   1
    26     6    24   1
    27     6    25   1
    28     6    26   1
    29     7    27   1
    30     7    28   1
    31     8    29   1
    32     8    30   1
    33     9    31   1
    34     9    32   1
    35    10    33   1
    36    10    34   1
    37    11    35   1
    38    11    36   1
    39    15    37   1
    40    15    38   1
    41    15    39   1
    42    17    40   1
    43    18    41   1
    44    19    42   1
    45    20    43   1
    46    22    44   1
@<TRIPOS>SUBSTRUCTURE
     1  H52      5

