@<TRIPOS>MOLECULE
1q8u_ligand_036
    44    46
SMALL
GAST_HUCK
****
This file was generated by PARSER (from files_GN.cpp)

@<TRIPOS>ATOM
      1 O1          9.4338    7.3860    5.0707 O.2         1 H52      -0.1497
      2 S5         10.0994    8.3066    3.9519 S.o2        1 H52       0.0732
      3 O2         11.4388    7.4506    3.9591 O.2         1 H52      -0.1497
      4 N21        10.3247    9.8047    4.7300 N.am        1 H52      -0.2257
      5 C22         9.2296   10.4870    5.4039 C.3         1 H52       0.0778
      6 C2M         7.9597   10.7164    4.5316 C.3         1 H52      -0.0402
      7 C23         8.8741    9.8404    6.7816 C.3         1 H52      -0.0136
      8 N24         9.9906    9.2083    7.5249 N.4         1 H52       0.2284
      9 C25        11.2862    9.9129    7.6187 C.3         1 H52      -0.0321
     10 C26        12.1956    9.6538    6.3882 C.3         1 H52       0.0045
     11 C27        11.6765   10.2134    5.0389 C.3         1 H52       0.0350
     12 C5          9.1214    8.2761    2.4774 C.ar        1 H52       0.1228
     13 C10         9.5024    8.7913    1.1831 C.ar        1 H52       0.0294
     14 C4         10.8399    8.9147    0.6623 C.ar        1 H52      -0.0110
     15 CM         12.0718    8.2389    1.1594 C.3         1 H52      -0.0231
     16 C9          8.4383    9.2125    0.3132 C.ar        1 H52       0.0043
     17 C8          7.0827    9.0126    0.6435 C.ar        1 H52      -0.0481
     18 C7          6.7442    8.3441    1.8254 C.ar        1 H52      -0.0552
     19 C6          7.7527    7.9776    2.7202 C.ar        1 H52      -0.0302
     20 C1          8.7272    9.8389   -0.9198 C.ar        1 H52       0.0104
     21 N2         10.0016   10.0260   -1.3110 N.ar        1 H52      -0.3085
     22 C3         11.0400    9.6015   -0.5631 C.ar        1 H52       0.0074
     23 H1          9.5634   11.5045    5.6352 H           1 H52       0.0564
     24 H2          7.2731   11.4095    5.0343 H           1 H52       0.0250
     25 H3          7.4219    9.7804    4.3719 H           1 H52       0.0250
     26 H4          8.2423   11.1438    3.5625 H           1 H52       0.0250
     27 H5          8.1156    9.0666    6.6430 H           1 H52       0.0832
     28 H6          8.4197   10.5989    7.4214 H           1 H52       0.0832
     29 H7         10.1865    8.2935    7.1123 H           1 H52       0.2014
     30 H8          9.6583    9.0467    8.4793 H           1 H52       0.2014
     31 H9         11.7949    9.5159    8.5012 H           1 H52       0.0814
     32 H10        11.1436   10.9819    7.7795 H           1 H52       0.0814
     33 H11        12.3533    8.5773    6.2920 H           1 H52       0.0333
     34 H12        13.1724   10.1009    6.5948 H           1 H52       0.0333
     35 H13        11.7527   11.3032    5.0694 H           1 H52       0.0480
     36 H14        12.3616    9.8905    4.2575 H           1 H52       0.0480
     37 H15        12.5770    7.7126    0.3344 H           1 H52       0.0421
     38 H16        11.8476    7.4650    1.8800 H           1 H52       0.0421
     39 H17        12.7620    8.9850    1.5802 H           1 H52       0.0421
     40 H18         6.3295    9.3162    0.0218 H           1 H52       0.0643
     41 H19         5.7631    8.1696    2.0551 H           1 H52       0.0642
     42 H20         7.4522    7.5372    3.5926 H           1 H52       0.0657
     43 H21         7.9834   10.1651   -1.5397 H           1 H52       0.0786
     44 H22        11.9778    9.7388   -0.9396 H           1 H52       0.0687
@<TRIPOS>BOND
     1     1     2   2
     2     2     3   2
     3     2     4  am
     4     2    12   1
     5     4     5   1
     6     4    11   1
     7     5     6   1
     8     5     7   1
     9     7     8   1
    10     8     9   1
    11     9    10   1
    12    10    11   1
    13    12    13  ar
    14    12    19  ar
    15    13    14  ar
    16    13    16  ar
    17    14    15   1
    18    14    22  ar
    19    16    17  ar
    20    16    20  ar
    21    17    18  ar
    22    18    19  ar
    23    20    21  ar
    24    21    22  ar
    25     5    23   1
    26     6    24   1
    27     6    25   1
    28     6    26   1
    29     7    27   1
    30     7    28   1
    31     8    29   1
    32     8    30   1
    33     9    31   1
    34     9    32   1
    35    10    33   1
    36    10    34   1
    37    11    35   1
    38    11    36   1
    39    15    37   1
    40    15    38   1
    41    15    39   1
    42    17    40   1
    43    18    41   1
    44    19    42   1
    45    20    43   1
    46    22    44   1
@<TRIPOS>SUBSTRUCTURE
     1  H52      5

