@<TRIPOS>MOLECULE
1q8u_ligand_017
    44    46
SMALL
GAST_HUCK
****
This file was generated by PARSER (from files_GN.cpp)

@<TRIPOS>ATOM
      1 O1         18.2011    7.4931   -0.1099 O.2         1 H52      -0.1497
      2 S5         17.5487    8.9330   -0.2893 S.o2        1 H52       0.0732
      3 O2         16.1296    8.5422    0.3169 O.2         1 H52      -0.1497
      4 N21        17.1975    9.2697   -1.9249 N.am        1 H52      -0.2257
      5 C22        16.3276   10.4011   -2.2242 C.3         1 H52       0.0778
      6 C2M        17.1059   11.7337   -2.0347 C.3         1 H52      -0.0402
      7 C23        15.6347   10.3984   -3.6280 C.3         1 H52      -0.0136
      8 N24        14.8337    9.1840   -3.9083 N.4         1 H52       0.2284
      9 C25        15.5411    7.9802   -4.3958 C.3         1 H52      -0.0321
     10 C26        16.5154    7.3683   -3.3677 C.3         1 H52       0.0045
     11 C27        17.6361    8.3442   -2.9474 C.3         1 H52       0.0350
     12 C5         18.4456   10.0226    0.7850 C.ar        1 H52       0.1228
     13 C10        19.8512   10.3800    0.7375 C.ar        1 H52       0.0294
     14 C4         20.8007   10.0802   -0.3047 C.ar        1 H52      -0.0110
     15 CM         20.4785    9.4648   -1.6079 C.3         1 H52      -0.0231
     16 C9         20.3750   11.1360    1.8437 C.ar        1 H52       0.0043
     17 C8         19.5551   11.5783    2.8984 C.ar        1 H52      -0.0481
     18 C7         18.1979   11.2665    2.9054 C.ar        1 H52      -0.0552
     19 C6         17.6565   10.5087    1.8642 C.ar        1 H52      -0.0302
     20 C1         21.7499   11.4562    1.9208 C.ar        1 H52       0.0104
     21 N2         22.5997   11.0690    0.9553 N.ar        1 H52      -0.3085
     22 C3         22.1704   10.3982   -0.1315 C.ar        1 H52       0.0074
     23 H1         15.5051   10.4064   -1.4987 H           1 H52       0.0564
     24 H2         16.4847   12.5913   -2.2991 H           1 H52       0.0250
     25 H3         18.0013   11.7447   -2.6566 H           1 H52       0.0250
     26 H4         17.4010   11.8579   -0.9961 H           1 H52       0.0250
     27 H5         16.3680   10.5545   -4.4220 H           1 H52       0.0832
     28 H6         14.9367   11.2372   -3.6704 H           1 H52       0.0832
     29 H7         14.1603    9.4267   -4.6372 H           1 H52       0.2014
     30 H8         14.3159    8.9345   -3.0642 H           1 H52       0.2014
     31 H9         16.0787    8.2101   -5.3202 H           1 H52       0.0814
     32 H10        14.7862    7.2234   -4.6328 H           1 H52       0.0814
     33 H11        16.9765    6.4867   -3.8239 H           1 H52       0.0333
     34 H12        15.9695    7.0339   -2.4807 H           1 H52       0.0333
     35 H13        18.4628    7.7218   -2.6056 H           1 H52       0.0480
     36 H14        18.0086    8.9029   -3.8142 H           1 H52       0.0480
     37 H15        21.3181    9.4397   -2.3137 H           1 H52       0.0421
     38 H16        19.6972   10.0558   -2.0793 H           1 H52       0.0421
     39 H17        20.1684    8.4376   -1.4242 H           1 H52       0.0421
     40 H18        19.9391   12.1204    3.6788 H           1 H52       0.0643
     41 H19        17.6079   11.5856    3.6765 H           1 H52       0.0642
     42 H20        16.6541   10.3107    1.9286 H           1 H52       0.0657
     43 H21        22.1364   11.9782    2.7057 H           1 H52       0.0786
     44 H22        22.8691   10.1489   -0.8378 H           1 H52       0.0687
@<TRIPOS>BOND
     1     1     2   2
     2     2     3   2
     3     2     4  am
     4     2    12   1
     5     4     5   1
     6     4    11   1
     7     5     6   1
     8     5     7   1
     9     7     8   1
    10     8     9   1
    11     9    10   1
    12    10    11   1
    13    12    13  ar
    14    12    19  ar
    15    13    14  ar
    16    13    16  ar
    17    14    15   1
    18    14    22  ar
    19    16    17  ar
    20    16    20  ar
    21    17    18  ar
    22    18    19  ar
    23    20    21  ar
    24    21    22  ar
    25     5    23   1
    26     6    24   1
    27     6    25   1
    28     6    26   1
    29     7    27   1
    30     7    28   1
    31     8    29   1
    32     8    30   1
    33     9    31   1
    34     9    32   1
    35    10    33   1
    36    10    34   1
    37    11    35   1
    38    11    36   1
    39    15    37   1
    40    15    38   1
    41    15    39   1
    42    17    40   1
    43    18    41   1
    44    19    42   1
    45    20    43   1
    46    22    44   1
@<TRIPOS>SUBSTRUCTURE
     1  H52      5

