@<TRIPOS>MOLECULE
1q8u_ligand_004
    44    46
SMALL
GAST_HUCK
****
This file was generated by PARSER (from files_GN.cpp)

@<TRIPOS>ATOM
      1 O1         16.9476   12.7656   -1.3875 O.2         1 H52      -0.1497
      2 S5         16.4036   11.2994   -1.0869 S.o2        1 H52       0.0732
      3 O2         17.3344   11.0435    0.1806 O.2         1 H52      -0.1497
      4 N21        16.9124   10.2356   -2.3221 N.am        1 H52      -0.2257
      5 C22        17.8973    9.1533   -2.1824 C.3         1 H52       0.0778
      6 C2M        19.2655    9.5182   -1.5272 C.3         1 H52      -0.0402
      7 C23        17.2679    7.8691   -1.5605 C.3         1 H52      -0.0136
      8 N24        15.9644    7.4152   -2.1209 N.4         1 H52       0.2284
      9 C25        15.6236    7.7245   -3.5240 C.3         1 H52      -0.0321
     10 C26        15.1202    9.1816   -3.7263 C.3         1 H52       0.0045
     11 C27        16.1832   10.2989   -3.5758 C.3         1 H52       0.0350
     12 C5         14.8401   11.2052   -0.2770 C.ar        1 H52       0.1228
     13 C10        14.0583   12.3375    0.1372 C.ar        1 H52       0.0294
     14 C4         13.9731   13.6012   -0.5362 C.ar        1 H52      -0.0110
     15 CM         14.2954   13.8356   -1.9661 C.3         1 H52      -0.0231
     16 C9         13.2825   12.1877    1.3341 C.ar        1 H52       0.0043
     17 C8         13.1184   10.9283    1.9503 C.ar        1 H52      -0.0481
     18 C7         13.7210    9.7977    1.4003 C.ar        1 H52      -0.0552
     19 C6         14.5935    9.9417    0.3114 C.ar        1 H52      -0.0302
     20 C1         12.6536   13.3077    1.9149 C.ar        1 H52       0.0104
     21 N2         12.7159   14.5045    1.3073 N.ar        1 H52      -0.3085
     22 C3         13.3430   14.6786    0.1249 C.ar        1 H52       0.0074
     23 H1         18.2109    8.8569   -3.1955 H           1 H52       0.0564
     24 H2         19.9733    8.6840   -1.6676 H           1 H52       0.0250
     25 H3         19.1730    9.6949   -0.4455 H           1 H52       0.0250
     26 H4         19.6831   10.4110   -2.0189 H           1 H52       0.0250
     27 H5         17.1420    8.0224   -0.4839 H           1 H52       0.0832
     28 H6         17.9734    7.0469   -1.6934 H           1 H52       0.0832
     29 H7         15.2123    7.7868   -1.5440 H           1 H52       0.2014
     30 H8         15.9483    6.3975   -2.0279 H           1 H52       0.2014
     31 H9         14.8069    7.0546   -3.7961 H           1 H52       0.0814
     32 H10        16.4601    7.4997   -4.1877 H           1 H52       0.0814
     33 H11        14.3149    9.3816   -3.0186 H           1 H52       0.0333
     34 H12        14.6973    9.2553   -4.7326 H           1 H52       0.0333
     35 H13        16.8852   10.2402   -4.4161 H           1 H52       0.0480
     36 H14        15.6778   11.2582   -3.6934 H           1 H52       0.0480
     37 H15        13.4353   14.2928   -2.4674 H           1 H52       0.0421
     38 H16        14.5072   12.9115   -2.4999 H           1 H52       0.0421
     39 H17        15.1445   14.5211   -2.0488 H           1 H52       0.0421
     40 H18        12.5471   10.8174    2.7915 H           1 H52       0.0643
     41 H19        13.5913    8.8772    1.8321 H           1 H52       0.0642
     42 H20        15.1316    9.1116    0.0276 H           1 H52       0.0657
     43 H21        12.1254   13.2371    2.7885 H           1 H52       0.0786
     44 H22        13.2912   15.5972   -0.3113 H           1 H52       0.0687
@<TRIPOS>BOND
     1     1     2   2
     2     2     3   2
     3     2     4  am
     4     2    12   1
     5     4     5   1
     6     4    11   1
     7     5     6   1
     8     5     7   1
     9     7     8   1
    10     8     9   1
    11     9    10   1
    12    10    11   1
    13    12    13  ar
    14    12    19  ar
    15    13    14  ar
    16    13    16  ar
    17    14    15   1
    18    14    22  ar
    19    16    17  ar
    20    16    20  ar
    21    17    18  ar
    22    18    19  ar
    23    20    21  ar
    24    21    22  ar
    25     5    23   1
    26     6    24   1
    27     6    25   1
    28     6    26   1
    29     7    27   1
    30     7    28   1
    31     8    29   1
    32     8    30   1
    33     9    31   1
    34     9    32   1
    35    10    33   1
    36    10    34   1
    37    11    35   1
    38    11    36   1
    39    15    37   1
    40    15    38   1
    41    15    39   1
    42    17    40   1
    43    18    41   1
    44    19    42   1
    45    20    43   1
    46    22    44   1
@<TRIPOS>SUBSTRUCTURE
     1  H52      5

