@<TRIPOS>MOLECULE
1q8u_ligand_046
    44    46
SMALL
GAST_HUCK
****
This file was generated by PARSER (from files_GN.cpp)

@<TRIPOS>ATOM
      1 O1          9.7353   11.4025    3.2926 O.2         1 H52      -0.1497
      2 S5          8.4694   11.0155    4.1751 S.o2        1 H52       0.0732
      3 O2          8.2548   12.3188    5.0611 O.2         1 H52      -0.1497
      4 N21         9.0368    9.7114    5.1073 N.am        1 H52      -0.2257
      5 C22        10.0077    9.9882    6.1546 C.3         1 H52       0.0778
      6 C2M         9.7902    9.1460    7.4398 C.3         1 H52      -0.0402
      7 C23        11.4727    9.9467    5.6207 C.3         1 H52      -0.0136
      8 N24        11.9342    8.6611    5.0584 N.4         1 H52       0.2284
      9 C25        11.1946    8.0995    3.9072 C.3         1 H52      -0.0321
     10 C26         9.8782    7.4096    4.3394 C.3         1 H52       0.0045
     11 C27         8.6997    8.3620    4.6938 C.3         1 H52       0.0350
     12 C5          7.0505   10.7356    3.1620 C.ar        1 H52       0.1228
     13 C10         5.7681   10.2234    3.5824 C.ar        1 H52       0.0294
     14 C4          5.2568   10.1629    4.9285 C.ar        1 H52      -0.0110
     15 CM          5.8596   10.8241    6.1163 C.3         1 H52      -0.0231
     16 C9          4.9002    9.7263    2.5466 C.ar        1 H52       0.0043
     17 C8          5.2397    9.8183    1.1810 C.ar        1 H52      -0.0481
     18 C7          6.4378   10.4183    0.7992 C.ar        1 H52      -0.0552
     19 C6          7.3254   10.8681    1.7774 C.ar        1 H52      -0.0302
     20 C1          3.6672    9.1218    2.8670 C.ar        1 H52       0.0104
     21 N2          3.2703    9.0388    4.1493 N.ar        1 H52      -0.3085
     22 C3          4.0116    9.5271    5.1625 C.ar        1 H52       0.0074
     23 H1          9.8654   11.0156    6.5034 H           1 H52       0.0564
     24 H2         10.4773    9.4641    8.2266 H           1 H52       0.0250
     25 H3          9.9467    8.0866    7.2534 H           1 H52       0.0250
     26 H4          8.7700    9.2852    7.8010 H           1 H52       0.0250
     27 H5         12.1516   10.1963    6.4401 H           1 H52       0.0832
     28 H6         11.6149   10.7211    4.8643 H           1 H52       0.0832
     29 H7         11.9290    7.9717    5.8071 H           1 H52       0.2014
     30 H8         12.9042    8.7930    4.7626 H           1 H52       0.2014
     31 H9         11.8416    7.3409    3.4604 H           1 H52       0.0814
     32 H10        11.0074    8.8596    3.1441 H           1 H52       0.0814
     33 H11        10.0908    6.7614    5.1923 H           1 H52       0.0333
     34 H12         9.5573    6.7510    3.5260 H           1 H52       0.0333
     35 H13         8.0430    8.3702    3.8216 H           1 H52       0.0480
     36 H14         8.1071    7.9051    5.4906 H           1 H52       0.0480
     37 H15         5.2382   10.7724    7.0144 H           1 H52       0.0421
     38 H16         5.9955   11.8811    5.8987 H           1 H52       0.0421
     39 H17         6.8048   10.3583    6.3727 H           1 H52       0.0421
     40 H18         4.6149    9.4658    0.4499 H           1 H52       0.0643
     41 H19         6.6853   10.4932   -0.1901 H           1 H52       0.0642
     42 H20         8.2043   11.2609    1.4384 H           1 H52       0.0657
     43 H21         3.0479    8.7442    2.1447 H           1 H52       0.0786
     44 H22         3.6180    9.4469    6.1034 H           1 H52       0.0687
@<TRIPOS>BOND
     1     1     2   2
     2     2     3   2
     3     2     4  am
     4     2    12   1
     5     4     5   1
     6     4    11   1
     7     5     6   1
     8     5     7   1
     9     7     8   1
    10     8     9   1
    11     9    10   1
    12    10    11   1
    13    12    13  ar
    14    12    19  ar
    15    13    14  ar
    16    13    16  ar
    17    14    15   1
    18    14    22  ar
    19    16    17  ar
    20    16    20  ar
    21    17    18  ar
    22    18    19  ar
    23    20    21  ar
    24    21    22  ar
    25     5    23   1
    26     6    24   1
    27     6    25   1
    28     6    26   1
    29     7    27   1
    30     7    28   1
    31     8    29   1
    32     8    30   1
    33     9    31   1
    34     9    32   1
    35    10    33   1
    36    10    34   1
    37    11    35   1
    38    11    36   1
    39    15    37   1
    40    15    38   1
    41    15    39   1
    42    17    40   1
    43    18    41   1
    44    19    42   1
    45    20    43   1
    46    22    44   1
@<TRIPOS>SUBSTRUCTURE
     1  H52      5

