@<TRIPOS>MOLECULE
1q8u_ligand_055
    44    46
SMALL
GAST_HUCK
****
This file was generated by PARSER (from files_GN.cpp)

@<TRIPOS>ATOM
      1 O1         19.2305    8.4938    0.0482 O.2         1 H52      -0.1497
      2 S5         17.6446    8.4038   -0.1125 S.o2        1 H52       0.0732
      3 O2         17.6213    6.8744   -0.5463 O.2         1 H52      -0.1497
      4 N21        17.2547    9.4867   -1.3698 N.am        1 H52      -0.2257
      5 C22        15.9721   10.1816   -1.3786 C.3         1 H52       0.0778
      6 C2M        16.0817   11.5208   -0.6050 C.3         1 H52      -0.0402
      7 C23        15.3610   10.4290   -2.7993 C.3         1 H52      -0.0136
      8 N24        15.2237    9.2452   -3.6799 N.4         1 H52       0.2284
      9 C25        16.2770    8.2042   -3.7197 C.3         1 H52      -0.0321
     10 C26        17.7544    8.6828   -3.6914 C.3         1 H52       0.0045
     11 C27        18.1468    9.6144   -2.5047 C.3         1 H52       0.0350
     12 C5         16.9616    8.7153    1.4878 C.ar        1 H52       0.1228
     13 C10        15.6081    8.4554    1.9371 C.ar        1 H52       0.0294
     14 C4         14.5880    7.6991    1.2548 C.ar        1 H52      -0.0110
     15 CM         14.7904    6.7665    0.1136 C.3         1 H52      -0.0231
     16 C9         15.2294    9.0199    3.2093 C.ar        1 H52       0.0043
     17 C8         16.1562    9.6703    4.0462 C.ar        1 H52      -0.0481
     18 C7         17.4655    9.8613    3.6197 C.ar        1 H52      -0.0552
     19 C6         17.8412    9.4262    2.3458 C.ar        1 H52      -0.0302
     20 C1         13.8972    8.9461    3.6687 C.ar        1 H52       0.0104
     21 N2         12.9603    8.3205    2.9346 N.ar        1 H52      -0.3085
     22 C3         13.2622    7.7129    1.7729 C.ar        1 H52       0.0074
     23 H1         15.2314    9.5931   -0.8447 H           1 H52       0.0564
     24 H2         15.1062   12.0129   -0.5526 H           1 H52       0.0250
     25 H3         16.7855   12.1951   -1.1004 H           1 H52       0.0250
     26 H4         16.4243   11.3476    0.4171 H           1 H52       0.0250
     27 H5         15.9453   11.1795   -3.3378 H           1 H52       0.0832
     28 H6         14.3559   10.8444   -2.6861 H           1 H52       0.0832
     29 H7         15.0990    9.5924   -4.6343 H           1 H52       0.2014
     30 H8         14.3593    8.7781   -3.4045 H           1 H52       0.2014
     31 H9         16.1255    7.6204   -4.6299 H           1 H52       0.0814
     32 H10        16.1148    7.5243   -2.8843 H           1 H52       0.0814
     33 H11        17.9832    9.1863   -4.6361 H           1 H52       0.0333
     34 H12        18.3835    7.7881   -3.6442 H           1 H52       0.0333
     35 H13        19.1885    9.4190   -2.2370 H           1 H52       0.0480
     36 H14        18.1454   10.6519   -2.8497 H           1 H52       0.0480
     37 H15        13.8824    6.2474   -0.1935 H           1 H52       0.0421
     38 H16        15.4960    5.9961    0.4141 H           1 H52       0.0421
     39 H17        15.1389    7.2883   -0.7660 H           1 H52       0.0421
     40 H18        15.8869   10.0261    4.9682 H           1 H52       0.0643
     41 H19        18.1373   10.3496    4.2186 H           1 H52       0.0642
     42 H20        18.7907    9.6730    2.0641 H           1 H52       0.0657
     43 H21        13.6090    9.3692    4.5531 H           1 H52       0.0786
     44 H22        12.4957    7.2246    1.2993 H           1 H52       0.0687
@<TRIPOS>BOND
     1     1     2   2
     2     2     3   2
     3     2     4  am
     4     2    12   1
     5     4     5   1
     6     4    11   1
     7     5     6   1
     8     5     7   1
     9     7     8   1
    10     8     9   1
    11     9    10   1
    12    10    11   1
    13    12    13  ar
    14    12    19  ar
    15    13    14  ar
    16    13    16  ar
    17    14    15   1
    18    14    22  ar
    19    16    17  ar
    20    16    20  ar
    21    17    18  ar
    22    18    19  ar
    23    20    21  ar
    24    21    22  ar
    25     5    23   1
    26     6    24   1
    27     6    25   1
    28     6    26   1
    29     7    27   1
    30     7    28   1
    31     8    29   1
    32     8    30   1
    33     9    31   1
    34     9    32   1
    35    10    33   1
    36    10    34   1
    37    11    35   1
    38    11    36   1
    39    15    37   1
    40    15    38   1
    41    15    39   1
    42    17    40   1
    43    18    41   1
    44    19    42   1
    45    20    43   1
    46    22    44   1
@<TRIPOS>SUBSTRUCTURE
     1  H52      5

