@<TRIPOS>MOLECULE
1q8u_ligand_047
    44    46
SMALL
GAST_HUCK
****
This file was generated by PARSER (from files_GN.cpp)

@<TRIPOS>ATOM
      1 O1         16.1999    6.2606    0.1627 O.2         1 H52      -0.1497
      2 S5         15.2637    7.5456    0.1844 S.o2        1 H52       0.0732
      3 O2         14.1325    7.0023   -0.7931 O.2         1 H52      -0.1497
      4 N21        15.9289    8.8680   -0.6597 N.am        1 H52      -0.2257
      5 C22        15.1459   10.0845   -0.7944 C.3         1 H52       0.0778
      6 C2M        15.5473   11.0724    0.3350 C.3         1 H52      -0.0402
      7 C23        15.1997   10.7822   -2.1925 C.3         1 H52      -0.0136
      8 N24        15.0542    9.8431   -3.3333 N.4         1 H52       0.2284
      9 C25        16.2927    9.1756   -3.7952 C.3         1 H52      -0.0321
     10 C26        16.9044    8.1462   -2.8107 C.3         1 H52       0.0045
     11 C27        17.1672    8.6916   -1.3804 C.3         1 H52       0.0350
     12 C5         14.5335    7.7642    1.7757 C.ar        1 H52       0.1228
     13 C10        15.0472    7.3035    3.0392 C.ar        1 H52       0.0294
     14 C4         16.3961    6.9014    3.3155 C.ar        1 H52      -0.0110
     15 CM         17.5964    7.2639    2.5151 C.3         1 H52      -0.0231
     16 C9         14.1174    7.2221    4.1319 C.ar        1 H52       0.0043
     17 C8         12.8117    7.7513    4.0301 C.ar        1 H52      -0.0481
     18 C7         12.3753    8.3057    2.8246 C.ar        1 H52      -0.0552
     19 C6         13.2147    8.2774    1.7099 C.ar        1 H52      -0.0302
     20 C1         14.4881    6.5980    5.3411 C.ar        1 H52       0.0104
     21 N2         15.7328    6.1036    5.4961 N.ar        1 H52      -0.3085
     22 C3         16.6751    6.2335    4.5357 C.ar        1 H52       0.0074
     23 H1         14.0886    9.8509   -0.6417 H           1 H52       0.0564
     24 H2         14.9138   11.9607    0.3037 H           1 H52       0.0250
     25 H3         16.5920   11.3780    0.2220 H           1 H52       0.0250
     26 H4         15.4275   10.5994    1.3129 H           1 H52       0.0250
     27 H5         16.1183   11.3646   -2.3009 H           1 H52       0.0832
     28 H6         14.3686   11.4893   -2.2531 H           1 H52       0.0832
     29 H7         14.7128   10.3924   -4.1260 H           1 H52       0.2014
     30 H8         14.3389    9.1396   -3.1097 H           1 H52       0.2014
     31 H9         17.0393    9.9310   -4.0430 H           1 H52       0.0814
     32 H10        16.0460    8.6533   -4.7211 H           1 H52       0.0814
     33 H11        17.8575    7.8095   -3.2321 H           1 H52       0.0333
     34 H12        16.2483    7.2711   -2.7554 H           1 H52       0.0333
     35 H13        17.8253    7.9968   -0.8546 H           1 H52       0.0480
     36 H14        17.7129    9.6338   -1.4455 H           1 H52       0.0480
     37 H15        18.4162    7.5901    3.1740 H           1 H52       0.0421
     38 H16        17.3995    8.1017    1.8495 H           1 H52       0.0421
     39 H17        17.9387    6.3979    1.9435 H           1 H52       0.0421
     40 H18        12.1709    7.7349    4.8266 H           1 H52       0.0643
     41 H19        11.4269    8.6750    2.7450 H           1 H52       0.0642
     42 H20        12.8141    8.6047    0.8217 H           1 H52       0.0657
     43 H21        13.8261    6.4954    6.1175 H           1 H52       0.0786
     44 H22        17.6148    5.8851    4.7508 H           1 H52       0.0687
@<TRIPOS>BOND
     1     1     2   2
     2     2     3   2
     3     2     4  am
     4     2    12   1
     5     4     5   1
     6     4    11   1
     7     5     6   1
     8     5     7   1
     9     7     8   1
    10     8     9   1
    11     9    10   1
    12    10    11   1
    13    12    13  ar
    14    12    19  ar
    15    13    14  ar
    16    13    16  ar
    17    14    15   1
    18    14    22  ar
    19    16    17  ar
    20    16    20  ar
    21    17    18  ar
    22    18    19  ar
    23    20    21  ar
    24    21    22  ar
    25     5    23   1
    26     6    24   1
    27     6    25   1
    28     6    26   1
    29     7    27   1
    30     7    28   1
    31     8    29   1
    32     8    30   1
    33     9    31   1
    34     9    32   1
    35    10    33   1
    36    10    34   1
    37    11    35   1
    38    11    36   1
    39    15    37   1
    40    15    38   1
    41    15    39   1
    42    17    40   1
    43    18    41   1
    44    19    42   1
    45    20    43   1
    46    22    44   1
@<TRIPOS>SUBSTRUCTURE
     1  H52      5

