@<TRIPOS>MOLECULE
1q8u_ligand_028
    44    46
SMALL
GAST_HUCK
****
This file was generated by PARSER (from files_GN.cpp)

@<TRIPOS>ATOM
      1 O1         16.2285   12.4275   -0.7487 O.2         1 H52      -0.1497
      2 S5         14.9423   11.7251   -1.3793 S.o2        1 H52       0.0732
      3 O2         14.6555   12.7146   -2.5942 O.2         1 H52      -0.1497
      4 N21        13.5433   11.8325   -0.4197 N.am        1 H52      -0.2257
      5 C22        13.3692   12.9587    0.4861 C.3         1 H52       0.0778
      6 C2M        12.3894   14.0252   -0.0775 C.3         1 H52      -0.0402
      7 C23        12.9925   12.5292    1.9326 C.3         1 H52      -0.0136
      8 N24        11.8148   11.6379    2.0391 N.4         1 H52       0.2284
      9 C25        12.0558   10.1951    1.8043 C.3         1 H52      -0.0321
     10 C26        12.3275    9.7744    0.3307 C.3         1 H52       0.0045
     11 C27        12.4526   10.9231   -0.7021 C.3         1 H52       0.0350
     12 C5         15.3825   10.1142   -1.9533 C.ar        1 H52       0.1228
     13 C10        16.0961    9.0731   -1.2483 C.ar        1 H52       0.0294
     14 C4         16.5306    9.0804    0.1301 C.ar        1 H52      -0.0110
     15 CM         16.2540   10.1238    1.1554 C.3         1 H52      -0.0231
     16 C9         16.4052    7.8866   -2.0021 C.ar        1 H52       0.0043
     17 C8         15.9876    7.7099   -3.3367 C.ar        1 H52      -0.0481
     18 C7         15.2532    8.7069   -3.9733 C.ar        1 H52      -0.0552
     19 C6         14.9621    9.8873   -3.2922 C.ar        1 H52      -0.0302
     20 C1         17.1450    6.8327   -1.4238 C.ar        1 H52       0.0104
     21 N2         17.5681    6.9187   -0.1546 N.ar        1 H52      -0.3085
     22 C3         17.2880    7.9844    0.6207 C.ar        1 H52       0.0074
     23 H1         14.3224   13.4852    0.5940 H           1 H52       0.0564
     24 H2         12.4411   14.9414    0.5192 H           1 H52       0.0250
     25 H3         11.3574   13.6731   -0.0606 H           1 H52       0.0250
     26 H4         12.6544   14.2781   -1.1075 H           1 H52       0.0250
     27 H5         12.7766   13.4205    2.5244 H           1 H52       0.0832
     28 H6         13.8553   12.0512    2.4011 H           1 H52       0.0832
     29 H7         11.0918   11.9594    1.3932 H           1 H52       0.2014
     30 H8         11.4486   11.7318    2.9908 H           1 H52       0.2014
     31 H9         11.1647    9.6700    2.1568 H           1 H52       0.0814
     32 H10        12.8788    9.8609    2.4420 H           1 H52       0.0814
     33 H11        11.5083    9.1278   -0.0027 H           1 H52       0.0333
     34 H12        13.2379    9.1700    0.2932 H           1 H52       0.0333
     35 H13        12.5650   10.4635   -1.6857 H           1 H52       0.0480
     36 H14        11.5030   11.4557   -0.7414 H           1 H52       0.0480
     37 H15        16.3863    9.7691    2.1813 H           1 H52       0.0421
     38 H16        15.2252   10.4557    1.0934 H           1 H52       0.0421
     39 H17        16.9413   10.9610    1.0261 H           1 H52       0.0421
     40 H18        16.2054    6.8551   -3.8562 H           1 H52       0.0643
     41 H19        14.9410    8.5760   -4.9371 H           1 H52       0.0642
     42 H20        14.4286   10.5849   -3.8099 H           1 H52       0.0657
     43 H21        17.3829    5.9874   -1.9507 H           1 H52       0.0786
     44 H22        17.6448    7.9603    1.5792 H           1 H52       0.0687
@<TRIPOS>BOND
     1     1     2   2
     2     2     3   2
     3     2     4  am
     4     2    12   1
     5     4     5   1
     6     4    11   1
     7     5     6   1
     8     5     7   1
     9     7     8   1
    10     8     9   1
    11     9    10   1
    12    10    11   1
    13    12    13  ar
    14    12    19  ar
    15    13    14  ar
    16    13    16  ar
    17    14    15   1
    18    14    22  ar
    19    16    17  ar
    20    16    20  ar
    21    17    18  ar
    22    18    19  ar
    23    20    21  ar
    24    21    22  ar
    25     5    23   1
    26     6    24   1
    27     6    25   1
    28     6    26   1
    29     7    27   1
    30     7    28   1
    31     8    29   1
    32     8    30   1
    33     9    31   1
    34     9    32   1
    35    10    33   1
    36    10    34   1
    37    11    35   1
    38    11    36   1
    39    15    37   1
    40    15    38   1
    41    15    39   1
    42    17    40   1
    43    18    41   1
    44    19    42   1
    45    20    43   1
    46    22    44   1
@<TRIPOS>SUBSTRUCTURE
     1  H52      5

