@<TRIPOS>MOLECULE
1q8u_ligand_005
    44    46
SMALL
GAST_HUCK
****
This file was generated by PARSER (from files_GN.cpp)

@<TRIPOS>ATOM
      1 O1         17.1639    6.9428   -0.0121 O.2         1 H52      -0.1497
      2 S5         16.6892    8.4397    0.2148 S.o2        1 H52       0.0732
      3 O2         15.1352    8.2922    0.5480 O.2         1 H52      -0.1497
      4 N21        16.8295    9.2170   -1.3011 N.am        1 H52      -0.2257
      5 C22        15.9169   10.2872   -1.6767 C.3         1 H52       0.0778
      6 C2M        16.4698   11.6833   -1.2799 C.3         1 H52      -0.0402
      7 C23        15.5013   10.3137   -3.1824 C.3         1 H52      -0.0136
      8 N24        15.1443    8.9855   -3.7264 N.4         1 H52       0.2284
      9 C25        16.2618    8.1623   -4.2413 C.3         1 H52      -0.0321
     10 C26        17.2282    7.6262   -3.1576 C.3         1 H52       0.0045
     11 C27        17.8218    8.7145   -2.2240 C.3         1 H52       0.0350
     12 C5         17.4851    9.1682    1.6042 C.ar        1 H52       0.1228
     13 C10        17.2466    8.8518    2.9898 C.ar        1 H52       0.0294
     14 C4         16.7445    7.6102    3.5072 C.ar        1 H52      -0.0110
     15 CM         16.7142    6.3241    2.7647 C.3         1 H52      -0.0231
     16 C9         17.5806    9.8642    3.9513 C.ar        1 H52       0.0043
     17 C8         18.2718   11.0357    3.5805 C.ar        1 H52      -0.0481
     18 C7         18.6579   11.2293    2.2539 C.ar        1 H52      -0.0552
     19 C6         18.2631   10.3047    1.2769 C.ar        1 H52      -0.0302
     20 C1         17.2320    9.6981    5.3088 C.ar        1 H52       0.0104
     21 N2         16.6617    8.5476    5.7249 N.ar        1 H52      -0.3085
     22 C3         16.4258    7.5235    4.8882 C.ar        1 H52       0.0074
     23 H1         14.9798   10.1653   -1.1260 H           1 H52       0.0564
     24 H2         15.8134   12.4792   -1.6364 H           1 H52       0.0250
     25 H3         17.4630   11.8412   -1.7034 H           1 H52       0.0250
     26 H4         16.5232   11.7841   -0.1962 H           1 H52       0.0250
     27 H5         16.2854   10.7737   -3.7903 H           1 H52       0.0832
     28 H6         14.6134   10.9437   -3.2806 H           1 H52       0.0832
     29 H7         14.5041    9.1438   -4.5073 H           1 H52       0.2014
     30 H8         14.6385    8.4681   -3.0078 H           1 H52       0.2014
     31 H9         16.8248    8.7295   -4.9891 H           1 H52       0.0814
     32 H10        15.8188    7.3071   -4.7589 H           1 H52       0.0814
     33 H11        18.0500    7.1215   -3.6708 H           1 H52       0.0333
     34 H12        16.7062    6.8734   -2.5631 H           1 H52       0.0333
     35 H13        18.6710    8.2863   -1.6857 H           1 H52       0.0480
     36 H14        18.2314    9.5276   -2.8265 H           1 H52       0.0480
     37 H15        16.6551    5.4468    3.4138 H           1 H52       0.0421
     38 H16        17.6429    6.2148    2.2089 H           1 H52       0.0421
     39 H17        15.8548    6.2861    2.1010 H           1 H52       0.0421
     40 H18        18.5283   11.7421    4.2782 H           1 H52       0.0643
     41 H19        19.1786   12.0671    1.9844 H           1 H52       0.0642
     42 H20        18.5144   10.5127    0.3118 H           1 H52       0.0657
     43 H21        17.4176   10.4253    6.0026 H           1 H52       0.0786
     44 H22        16.0437    6.6623    5.2900 H           1 H52       0.0687
@<TRIPOS>BOND
     1     1     2   2
     2     2     3   2
     3     2     4  am
     4     2    12   1
     5     4     5   1
     6     4    11   1
     7     5     6   1
     8     5     7   1
     9     7     8   1
    10     8     9   1
    11     9    10   1
    12    10    11   1
    13    12    13  ar
    14    12    19  ar
    15    13    14  ar
    16    13    16  ar
    17    14    15   1
    18    14    22  ar
    19    16    17  ar
    20    16    20  ar
    21    17    18  ar
    22    18    19  ar
    23    20    21  ar
    24    21    22  ar
    25     5    23   1
    26     6    24   1
    27     6    25   1
    28     6    26   1
    29     7    27   1
    30     7    28   1
    31     8    29   1
    32     8    30   1
    33     9    31   1
    34     9    32   1
    35    10    33   1
    36    10    34   1
    37    11    35   1
    38    11    36   1
    39    15    37   1
    40    15    38   1
    41    15    39   1
    42    17    40   1
    43    18    41   1
    44    19    42   1
    45    20    43   1
    46    22    44   1
@<TRIPOS>SUBSTRUCTURE
     1  H52      5

