@<TRIPOS>MOLECULE
1q8u_ligand_048
    44    46
SMALL
GAST_HUCK
****
This file was generated by PARSER (from files_GN.cpp)

@<TRIPOS>ATOM
      1 O1          7.2395   10.0267    5.1847 O.2         1 H52      -0.1497
      2 S5          8.7089   10.2700    4.6134 S.o2        1 H52       0.0732
      3 O2          8.3948   11.6703    3.9355 O.2         1 H52      -0.1497
      4 N21         9.0273    9.0786    3.4329 N.am        1 H52      -0.2257
      5 C22         8.3716    7.7910    3.5393 C.3         1 H52       0.0778
      6 C2M         7.3156    7.6106    2.4220 C.3         1 H52      -0.0402
      7 C23         9.3816    6.6179    3.6975 C.3         1 H52      -0.0136
      8 N24        10.1844    6.2701    2.5096 N.4         1 H52       0.2284
      9 C25        11.1901    7.2659    2.0872 C.3         1 H52      -0.0321
     10 C26        10.5254    8.4557    1.3625 C.3         1 H52       0.0045
     11 C27         9.8719    9.4927    2.3272 C.3         1 H52       0.0350
     12 C5          9.8894   10.3206    5.9088 C.ar        1 H52       0.1228
     13 C10        11.2988   10.3524    5.6705 C.ar        1 H52       0.0294
     14 C4         11.9424   10.9711    4.5487 C.ar        1 H52      -0.0110
     15 CM         11.3913   12.1432    3.7994 C.3         1 H52      -0.0231
     16 C9         12.1460    9.7075    6.6291 C.ar        1 H52       0.0043
     17 C8         11.6432    9.2915    7.8778 C.ar        1 H52      -0.0481
     18 C7         10.2834    9.4385    8.1677 C.ar        1 H52      -0.0552
     19 C6          9.4123    9.9035    7.1735 C.ar        1 H52      -0.0302
     20 C1         13.4947    9.4456    6.3040 C.ar        1 H52       0.0104
     21 N2         13.9922    9.8517    5.1209 N.ar        1 H52      -0.3085
     22 C3         13.2734   10.5986    4.2552 C.ar        1 H52       0.0074
     23 H1          7.7951    7.7442    4.4704 H           1 H52       0.0564
     24 H2          6.8796    6.6124    2.4658 H           1 H52       0.0250
     25 H3          7.7415    7.7523    1.4348 H           1 H52       0.0250
     26 H4          6.5194    8.3456    2.5471 H           1 H52       0.0250
     27 H5          8.8288    5.7099    3.9546 H           1 H52       0.0832
     28 H6         10.0536    6.8200    4.5423 H           1 H52       0.0832
     29 H7          9.5506    6.0708    1.7289 H           1 H52       0.2014
     30 H8         10.6876    5.4111    2.7436 H           1 H52       0.2014
     31 H9         11.8551    6.7664    1.3794 H           1 H52       0.0814
     32 H10        11.7948    7.6036    2.9346 H           1 H52       0.0814
     33 H11         9.8112    8.0833    0.6261 H           1 H52       0.0333
     34 H12        11.3012    8.9796    0.7967 H           1 H52       0.0333
     35 H13        10.7185   10.0389    2.7474 H           1 H52       0.0480
     36 H14         9.2664   10.1610    1.6944 H           1 H52       0.0480
     37 H15        12.2048   12.7984    3.4547 H           1 H52       0.0421
     38 H16        10.7938   12.7651    4.4755 H           1 H52       0.0421
     39 H17        10.7917   11.8434    2.9298 H           1 H52       0.0421
     40 H18        12.2578    8.8602    8.5807 H           1 H52       0.0643
     41 H19         9.9140    9.1248    9.0711 H           1 H52       0.0642
     42 H20         8.4121    9.8719    7.3744 H           1 H52       0.0657
     43 H21        14.1050    8.9312    6.9445 H           1 H52       0.0786
     44 H22        13.7407   10.9369    3.4119 H           1 H52       0.0687
@<TRIPOS>BOND
     1     1     2   2
     2     2     3   2
     3     2     4  am
     4     2    12   1
     5     4     5   1
     6     4    11   1
     7     5     6   1
     8     5     7   1
     9     7     8   1
    10     8     9   1
    11     9    10   1
    12    10    11   1
    13    12    13  ar
    14    12    19  ar
    15    13    14  ar
    16    13    16  ar
    17    14    15   1
    18    14    22  ar
    19    16    17  ar
    20    16    20  ar
    21    17    18  ar
    22    18    19  ar
    23    20    21  ar
    24    21    22  ar
    25     5    23   1
    26     6    24   1
    27     6    25   1
    28     6    26   1
    29     7    27   1
    30     7    28   1
    31     8    29   1
    32     8    30   1
    33     9    31   1
    34     9    32   1
    35    10    33   1
    36    10    34   1
    37    11    35   1
    38    11    36   1
    39    15    37   1
    40    15    38   1
    41    15    39   1
    42    17    40   1
    43    18    41   1
    44    19    42   1
    45    20    43   1
    46    22    44   1
@<TRIPOS>SUBSTRUCTURE
     1  H52      5

