@<TRIPOS>MOLECULE
1q8u_ligand_038
    44    46
SMALL
GAST_HUCK
****
This file was generated by PARSER (from files_GN.cpp)

@<TRIPOS>ATOM
      1 O1         12.9385    8.7767    2.4984 O.2         1 H52      -0.1497
      2 S5         12.0250    9.9521    3.0397 S.o2        1 H52       0.0732
      3 O2         12.8706   10.2748    4.3545 O.2         1 H52      -0.1497
      4 N21        10.5116    9.4247    3.6023 N.am        1 H52      -0.2257
      5 C22        10.3827    8.8278    4.9314 C.3         1 H52       0.0778
      6 C2M        10.0059    9.9215    5.9661 C.3         1 H52      -0.0402
      7 C23         9.3694    7.6413    5.0181 C.3         1 H52      -0.0136
      8 N24         9.6035    6.5226    4.0723 N.4         1 H52       0.2284
      9 C25         9.8793    6.8087    2.6384 C.3         1 H52      -0.0321
     10 C26         9.1022    8.0116    2.0341 C.3         1 H52       0.0045
     11 C27         9.3790    9.4020    2.6963 C.3         1 H52       0.0350
     12 C5         12.1502   11.4932    2.1948 C.ar        1 H52       0.1228
     13 C10        12.5650   11.6684    0.8256 C.ar        1 H52       0.0294
     14 C4         12.5265   10.6852   -0.2221 C.ar        1 H52      -0.0110
     15 CM         11.6541    9.4743   -0.2261 C.3         1 H52      -0.0231
     16 C9         13.0898   12.9594    0.4738 C.ar        1 H52       0.0043
     17 C8         13.0310   14.0543    1.3614 C.ar        1 H52      -0.0481
     18 C7         12.4797   13.8883    2.6324 C.ar        1 H52      -0.0552
     19 C6         12.0521   12.6197    3.0484 C.ar        1 H52      -0.0302
     20 C1         13.6987   13.1589   -0.7785 C.ar        1 H52       0.0104
     21 N2         13.7432   12.1638   -1.6869 N.ar        1 H52      -0.3085
     22 C3         13.1758   10.9702   -1.4466 C.ar        1 H52       0.0074
     23 H1         11.3492    8.4020    5.2303 H           1 H52       0.0564
     24 H2          9.9583    9.4873    6.9669 H           1 H52       0.0250
     25 H3          9.0336   10.3594    5.7282 H           1 H52       0.0250
     26 H4         10.7534   10.7137    5.9739 H           1 H52       0.0250
     27 H5          8.3431    7.9979    4.8694 H           1 H52       0.0832
     28 H6          9.4022    7.2135    6.0260 H           1 H52       0.0832
     29 H7          8.7643    5.9320    4.1035 H           1 H52       0.2014
     30 H8         10.3874    5.9634    4.4268 H           1 H52       0.2014
     31 H9          9.6176    5.9000    2.0883 H           1 H52       0.0814
     32 H10        10.9533    6.9608    2.5151 H           1 H52       0.0814
     33 H11         8.0340    7.7884    2.1027 H           1 H52       0.0333
     34 H12         9.3273    8.0558    0.9734 H           1 H52       0.0333
     35 H13         9.4747   10.1676    1.9254 H           1 H52       0.0480
     36 H14         8.4926    9.6915    3.2590 H           1 H52       0.0480
     37 H15        11.1935    9.3541   -1.2172 H           1 H52       0.0421
     38 H16        10.8387    9.5805    0.4698 H           1 H52       0.0421
     39 H17        12.2320    8.5660    0.0055 H           1 H52       0.0421
     40 H18        13.3765   14.9730    1.0877 H           1 H52       0.0643
     41 H19        12.4738   14.6783    3.2813 H           1 H52       0.0642
     42 H20        11.7307   12.5301    4.0147 H           1 H52       0.0657
     43 H21        14.1230   14.0528   -1.0310 H           1 H52       0.0786
     44 H22        13.1849   10.2777   -2.2016 H           1 H52       0.0687
@<TRIPOS>BOND
     1     1     2   2
     2     2     3   2
     3     2     4  am
     4     2    12   1
     5     4     5   1
     6     4    11   1
     7     5     6   1
     8     5     7   1
     9     7     8   1
    10     8     9   1
    11     9    10   1
    12    10    11   1
    13    12    13  ar
    14    12    19  ar
    15    13    14  ar
    16    13    16  ar
    17    14    15   1
    18    14    22  ar
    19    16    17  ar
    20    16    20  ar
    21    17    18  ar
    22    18    19  ar
    23    20    21  ar
    24    21    22  ar
    25     5    23   1
    26     6    24   1
    27     6    25   1
    28     6    26   1
    29     7    27   1
    30     7    28   1
    31     8    29   1
    32     8    30   1
    33     9    31   1
    34     9    32   1
    35    10    33   1
    36    10    34   1
    37    11    35   1
    38    11    36   1
    39    15    37   1
    40    15    38   1
    41    15    39   1
    42    17    40   1
    43    18    41   1
    44    19    42   1
    45    20    43   1
    46    22    44   1
@<TRIPOS>SUBSTRUCTURE
     1  H52      5

