@<TRIPOS>MOLECULE
1q8u_ligand_022
    44    46
SMALL
GAST_HUCK
****
This file was generated by PARSER (from files_GN.cpp)

@<TRIPOS>ATOM
      1 O1         19.6291   10.1968   -1.6604 O.2         1 H52      -0.1497
      2 S5         18.9692    9.7552   -0.2796 S.o2        1 H52       0.0732
      3 O2         19.6783    8.3563   -0.0215 O.2         1 H52      -0.1497
      4 N21        17.3237    9.5393   -0.6645 N.am        1 H52      -0.2257
      5 C22        16.9012    8.3325   -1.3767 C.3         1 H52       0.0778
      6 C2M        15.8383    7.5053   -0.5883 C.3         1 H52      -0.0402
      7 C23        16.4449    8.6064   -2.8428 C.3         1 H52      -0.0136
      8 N24        15.2229    9.4333   -2.9176 N.4         1 H52       0.2284
      9 C25        15.4018   10.9014   -2.9557 C.3         1 H52      -0.0321
     10 C26        16.3572   11.5139   -1.8904 C.3         1 H52       0.0045
     11 C27        16.4664   10.7034   -0.5683 C.3         1 H52       0.0350
     12 C5         19.5286   10.7803    1.0458 C.ar        1 H52       0.1228
     13 C10        18.8990   11.0153    2.3213 C.ar        1 H52       0.0294
     14 C4         17.8650   10.2255    2.9346 C.ar        1 H52      -0.0110
     15 CM         17.3945    8.9009    2.4490 C.3         1 H52      -0.0231
     16 C9         19.3752   12.1293    3.0917 C.ar        1 H52       0.0043
     17 C8         20.5093   12.8674    2.7002 C.ar        1 H52      -0.0481
     18 C7         21.2075   12.5115    1.5488 C.ar        1 H52      -0.0552
     19 C6         20.7201   11.4835    0.7382 C.ar        1 H52      -0.0302
     20 C1         18.7306   12.5054    4.2871 C.ar        1 H52       0.0104
     21 N2         17.7043   11.7763    4.7609 N.ar        1 H52      -0.3085
     22 C3         17.2713   10.6642    4.1430 C.ar        1 H52       0.0074
     23 H1         17.7488    7.6469   -1.4808 H           1 H52       0.0564
     24 H2         15.4697    6.6728   -1.1942 H           1 H52       0.0250
     25 H3         14.9832    8.1178   -0.2982 H           1 H52       0.0250
     26 H4         16.2795    7.0762    0.3139 H           1 H52       0.0250
     27 H5         16.2140    7.6533   -3.3251 H           1 H52       0.0832
     28 H6         17.2619    9.0605   -3.4114 H           1 H52       0.0832
     29 H7         14.6457    9.2097   -2.1059 H           1 H52       0.2014
     30 H8         14.6908    9.1461   -3.7448 H           1 H52       0.2014
     31 H9         14.4076   11.3354   -2.8220 H           1 H52       0.0814
     32 H10        15.7473   11.1886   -3.9531 H           1 H52       0.0814
     33 H11        15.9958   12.5190   -1.6496 H           1 H52       0.0333
     34 H12        17.3545   11.6378   -2.3222 H           1 H52       0.0333
     35 H13        16.8351   11.3754    0.2089 H           1 H52       0.0480
     36 H14        15.4660   10.4108   -0.2471 H           1 H52       0.0480
     37 H15        16.9292    8.2969    3.2435 H           1 H52       0.0421
     38 H16        18.2247    8.3013    2.0658 H           1 H52       0.0421
     39 H17        16.6361    9.0637    1.6762 H           1 H52       0.0421
     40 H18        20.8589   13.6471    3.2676 H           1 H52       0.0643
     41 H19        22.0546   13.0192    1.2846 H           1 H52       0.0642
     42 H20        21.2584   11.2796   -0.1037 H           1 H52       0.0657
     43 H21        19.0306   13.3205    4.8283 H           1 H52       0.0786
     44 H22        16.5077   10.1444    4.5802 H           1 H52       0.0687
@<TRIPOS>BOND
     1     1     2   2
     2     2     3   2
     3     2     4  am
     4     2    12   1
     5     4     5   1
     6     4    11   1
     7     5     6   1
     8     5     7   1
     9     7     8   1
    10     8     9   1
    11     9    10   1
    12    10    11   1
    13    12    13  ar
    14    12    19  ar
    15    13    14  ar
    16    13    16  ar
    17    14    15   1
    18    14    22  ar
    19    16    17  ar
    20    16    20  ar
    21    17    18  ar
    22    18    19  ar
    23    20    21  ar
    24    21    22  ar
    25     5    23   1
    26     6    24   1
    27     6    25   1
    28     6    26   1
    29     7    27   1
    30     7    28   1
    31     8    29   1
    32     8    30   1
    33     9    31   1
    34     9    32   1
    35    10    33   1
    36    10    34   1
    37    11    35   1
    38    11    36   1
    39    15    37   1
    40    15    38   1
    41    15    39   1
    42    17    40   1
    43    18    41   1
    44    19    42   1
    45    20    43   1
    46    22    44   1
@<TRIPOS>SUBSTRUCTURE
     1  H52      5

