@<TRIPOS>MOLECULE
1q8u_ligand_079
    44    46
SMALL
GAST_HUCK
****
This file was generated by PARSER (from files_GN.cpp)

@<TRIPOS>ATOM
      1 O1         13.4583   10.8841   -2.5634 O.2         1 H52      -0.1497
      2 S5         13.7836   11.3238   -1.0733 S.o2        1 H52       0.0732
      3 O2         14.0846   12.8524   -1.3956 O.2         1 H52      -0.1497
      4 N21        15.1970   10.4528   -0.6931 N.am        1 H52      -0.2257
      5 C22        16.1446   10.0690   -1.7317 C.3         1 H52       0.0778
      6 C2M        17.1287   11.2361   -2.0066 C.3         1 H52      -0.0402
      7 C23        16.9278    8.7412   -1.4776 C.3         1 H52      -0.0136
      8 N24        16.0497    7.6670   -0.9558 N.4         1 H52       0.2284
      9 C25        15.9077    7.5925    0.5163 C.3         1 H52      -0.0321
     10 C26        15.0311    8.7310    1.0972 C.3         1 H52       0.0045
     11 C27        15.4740   10.1625    0.6937 C.3         1 H52       0.0350
     12 C5         12.3430   10.9738   -0.1009 C.ar        1 H52       0.1228
     13 C10        11.9513   11.5314    1.1767 C.ar        1 H52       0.0294
     14 C4         12.5061   12.6859    1.8355 C.ar        1 H52      -0.0110
     15 CM         13.4580   13.6507    1.2251 C.3         1 H52      -0.0231
     16 C9         10.8746   10.8744    1.8797 C.ar        1 H52       0.0043
     17 C8         10.1597    9.8027    1.3112 C.ar        1 H52      -0.0481
     18 C7         10.4983    9.3334    0.0466 C.ar        1 H52      -0.0552
     19 C6         11.5825    9.9002   -0.6273 C.ar        1 H52      -0.0302
     20 C1         10.4772   11.2841    3.1717 C.ar        1 H52       0.0104
     21 N2         11.0720   12.3398    3.7547 N.ar        1 H52      -0.3085
     22 C3         12.0441   13.0356    3.1316 C.ar        1 H52       0.0074
     23 H1         15.6073    9.8923   -2.6642 H           1 H52       0.0564
     24 H2         17.8453   10.9622   -2.7848 H           1 H52       0.0250
     25 H3         17.6797   11.4859   -1.0971 H           1 H52       0.0250
     26 H4         16.5911   12.1260   -2.3425 H           1 H52       0.0250
     27 H5         17.7785    8.9046   -0.8085 H           1 H52       0.0832
     28 H6         17.3390    8.3882   -2.4279 H           1 H52       0.0832
     29 H7         16.4125    6.7700   -1.2954 H           1 H52       0.2014
     30 H8         15.1152    7.8025   -1.3495 H           1 H52       0.2014
     31 H9         16.8907    7.5835    0.9960 H           1 H52       0.0814
     32 H10        15.4302    6.6364    0.7460 H           1 H52       0.0814
     33 H11        15.0654    8.6527    2.1864 H           1 H52       0.0333
     34 H12        13.9947    8.5691    0.7890 H           1 H52       0.0333
     35 H13        14.9665   10.8656    1.3563 H           1 H52       0.0480
     36 H14        16.5411   10.2831    0.8952 H           1 H52       0.0480
     37 H15        13.6634   14.5191    1.8573 H           1 H52       0.0421
     38 H16        13.0119   14.0437    0.3179 H           1 H52       0.0421
     39 H17        14.4160   13.1803    1.0298 H           1 H52       0.0421
     40 H18         9.3762    9.3568    1.8069 H           1 H52       0.0643
     41 H19         9.9765    8.5590   -0.3713 H           1 H52       0.0642
     42 H20        11.8030    9.4703   -1.5185 H           1 H52       0.0657
     43 H21         9.7240   10.8109    3.6808 H           1 H52       0.0786
     44 H22        12.4050   13.8541    3.6227 H           1 H52       0.0687
@<TRIPOS>BOND
     1     1     2   2
     2     2     3   2
     3     2     4  am
     4     2    12   1
     5     4     5   1
     6     4    11   1
     7     5     6   1
     8     5     7   1
     9     7     8   1
    10     8     9   1
    11     9    10   1
    12    10    11   1
    13    12    13  ar
    14    12    19  ar
    15    13    14  ar
    16    13    16  ar
    17    14    15   1
    18    14    22  ar
    19    16    17  ar
    20    16    20  ar
    21    17    18  ar
    22    18    19  ar
    23    20    21  ar
    24    21    22  ar
    25     5    23   1
    26     6    24   1
    27     6    25   1
    28     6    26   1
    29     7    27   1
    30     7    28   1
    31     8    29   1
    32     8    30   1
    33     9    31   1
    34     9    32   1
    35    10    33   1
    36    10    34   1
    37    11    35   1
    38    11    36   1
    39    15    37   1
    40    15    38   1
    41    15    39   1
    42    17    40   1
    43    18    41   1
    44    19    42   1
    45    20    43   1
    46    22    44   1
@<TRIPOS>SUBSTRUCTURE
     1  H52      5

