@<TRIPOS>MOLECULE
1q8u_ligand_013
    44    46
SMALL
GAST_HUCK
****
This file was generated by PARSER (from files_GN.cpp)

@<TRIPOS>ATOM
      1 O1         16.8209    6.8728    0.0576 O.2         1 H52      -0.1497
      2 S5         17.1833    8.1722   -0.7892 S.o2        1 H52       0.0732
      3 O2         18.6998    8.0585   -0.3340 O.2         1 H52      -0.1497
      4 N21        16.4043    9.4619    0.0057 N.am        1 H52      -0.2257
      5 C22        15.1047    9.2821    0.6409 C.3         1 H52       0.0778
      6 C2M        15.3045    8.8446    2.1181 C.3         1 H52      -0.0402
      7 C23        14.1596   10.5350    0.5886 C.3         1 H52      -0.0136
      8 N24        13.9073   11.1487   -0.7382 N.4         1 H52       0.2284
      9 C25        14.9670   11.1521   -1.7722 C.3         1 H52      -0.0321
     10 C26        16.3926   11.5773   -1.3114 C.3         1 H52       0.0045
     11 C27        16.9722   10.7837   -0.1000 C.3         1 H52       0.0350
     12 C5         16.7742    7.8239   -2.4762 C.ar        1 H52       0.1228
     13 C10        17.2809    8.4640   -3.6717 C.ar        1 H52       0.0294
     14 C4         18.4293    9.3288   -3.7861 C.ar        1 H52      -0.0110
     15 CM         19.4847    9.5209   -2.7603 C.3         1 H52      -0.0231
     16 C9         16.5709    8.2085   -4.8987 C.ar        1 H52       0.0043
     17 C8         15.5238    7.2691   -4.9712 C.ar        1 H52      -0.0481
     18 C7         15.1018    6.6049   -3.8222 C.ar        1 H52      -0.0552
     19 C6         15.6961    6.9071   -2.5961 C.ar        1 H52      -0.0302
     20 C1         16.8987    8.8997   -6.0837 C.ar        1 H52       0.0104
     21 N2         17.9175    9.7754   -6.1016 N.ar        1 H52      -0.3085
     22 C3         18.6774    9.9988   -5.0125 C.ar        1 H52       0.0074
     23 H1         14.5683    8.4795    0.1255 H           1 H52       0.0564
     24 H2         14.3401    8.6935    2.6050 H           1 H52       0.0250
     25 H3         15.8596    9.6053    2.6706 H           1 H52       0.0250
     26 H4         15.8571    7.9077    2.1775 H           1 H52       0.0250
     27 H5         14.5447   11.3206    1.2433 H           1 H52       0.0832
     28 H6         13.1846   10.2544    0.9909 H           1 H52       0.0832
     29 H7         13.6337   12.1205   -0.5738 H           1 H52       0.2014
     30 H8         13.1008   10.6700   -1.1450 H           1 H52       0.2014
     31 H9         14.6443   11.8292   -2.5667 H           1 H52       0.0814
     32 H10        15.0108   10.1527   -2.2095 H           1 H52       0.0814
     33 H11        16.3822   12.6430   -1.0645 H           1 H52       0.0333
     34 H12        17.0570   11.4557   -2.1706 H           1 H52       0.0333
     35 H13        18.0593   10.7541   -0.1424 H           1 H52       0.0480
     36 H14        16.7795   11.3383    0.8189 H           1 H52       0.0480
     37 H15        20.3451   10.1015   -3.1059 H           1 H52       0.0421
     38 H16        19.8682    8.5491   -2.4498 H           1 H52       0.0421
     39 H17        19.0768   10.0685   -1.9245 H           1 H52       0.0421
     40 H18        15.0577    7.0610   -5.8551 H           1 H52       0.0643
     41 H19        14.3355    5.9297   -3.8738 H           1 H52       0.0642
     42 H20        15.2928    6.4407   -1.7812 H           1 H52       0.0657
     43 H21        16.3803    8.7544   -6.9521 H           1 H52       0.0786
     44 H22        19.4612   10.6474   -5.1181 H           1 H52       0.0687
@<TRIPOS>BOND
     1     1     2   2
     2     2     3   2
     3     2     4  am
     4     2    12   1
     5     4     5   1
     6     4    11   1
     7     5     6   1
     8     5     7   1
     9     7     8   1
    10     8     9   1
    11     9    10   1
    12    10    11   1
    13    12    13  ar
    14    12    19  ar
    15    13    14  ar
    16    13    16  ar
    17    14    15   1
    18    14    22  ar
    19    16    17  ar
    20    16    20  ar
    21    17    18  ar
    22    18    19  ar
    23    20    21  ar
    24    21    22  ar
    25     5    23   1
    26     6    24   1
    27     6    25   1
    28     6    26   1
    29     7    27   1
    30     7    28   1
    31     8    29   1
    32     8    30   1
    33     9    31   1
    34     9    32   1
    35    10    33   1
    36    10    34   1
    37    11    35   1
    38    11    36   1
    39    15    37   1
    40    15    38   1
    41    15    39   1
    42    17    40   1
    43    18    41   1
    44    19    42   1
    45    20    43   1
    46    22    44   1
@<TRIPOS>SUBSTRUCTURE
     1  H52      5

