@<TRIPOS>MOLECULE
1q8u_ligand_035
    44    46
SMALL
GAST_HUCK
****
This file was generated by PARSER (from files_GN.cpp)

@<TRIPOS>ATOM
      1 O1         19.2835    8.6064   -0.7841 O.2         1 H52      -0.1497
      2 S5         17.9557    8.2972    0.0404 S.o2        1 H52       0.0732
      3 O2         17.9879    6.7125   -0.0262 O.2         1 H52      -0.1497
      4 N21        16.6573    8.7949   -0.9429 N.am        1 H52      -0.2257
      5 C22        16.7435    8.6770   -2.3938 C.3         1 H52       0.0778
      6 C2M        16.0545    7.3894   -2.9173 C.3         1 H52      -0.0402
      7 C23        16.2708    9.9520   -3.1536 C.3         1 H52      -0.0136
      8 N24        14.8460   10.2966   -2.9465 N.4         1 H52       0.2284
      9 C25        14.5205   11.1248   -1.7612 C.3         1 H52      -0.0321
     10 C26        15.1472   10.6867   -0.4079 C.3         1 H52       0.0045
     11 C27        15.4180    9.1655   -0.2916 C.3         1 H52       0.0350
     12 C5         18.0953    9.2074    1.5600 C.ar        1 H52       0.1228
     13 C10        17.3992    8.9671    2.8039 C.ar        1 H52       0.0294
     14 C4         16.7485    7.7503    3.2153 C.ar        1 H52      -0.0110
     15 CM         17.0029    6.4155    2.6360 C.3         1 H52      -0.0231
     16 C9         17.3267   10.0540    3.7415 C.ar        1 H52       0.0043
     17 C8         18.0409   11.2489    3.5429 C.ar        1 H52      -0.0481
     18 C7         18.8047   11.4231    2.3899 C.ar        1 H52      -0.0552
     19 C6         18.7960   10.4358    1.4009 C.ar        1 H52      -0.0302
     20 C1         16.5232    9.9585    4.8986 C.ar        1 H52       0.0104
     21 N2         15.8365    8.8312    5.1642 N.ar        1 H52      -0.3085
     22 C3         15.9290    7.7472    4.3712 C.ar        1 H52       0.0074
     23 H1         17.7908    8.5633   -2.6915 H           1 H52       0.0564
     24 H2         16.2708    7.2537   -3.9801 H           1 H52       0.0250
     25 H3         14.9734    7.4391   -2.7935 H           1 H52       0.0250
     26 H4         16.4282    6.5175   -2.3792 H           1 H52       0.0250
     27 H5         16.4055    9.7890   -4.2275 H           1 H52       0.0832
     28 H6         16.9112   10.8018   -2.8853 H           1 H52       0.0832
     29 H7         14.2924    9.4331   -2.9010 H           1 H52       0.2014
     30 H8         14.5504   10.8211   -3.7755 H           1 H52       0.2014
     31 H9         13.4342   11.1122   -1.6633 H           1 H52       0.0814
     32 H10        14.8133   12.1581   -1.9696 H           1 H52       0.0814
     33 H11        14.4689   10.9878    0.3959 H           1 H52       0.0333
     34 H12        16.0829   11.2274   -0.2498 H           1 H52       0.0333
     35 H13        15.4279    8.9087    0.7699 H           1 H52       0.0480
     36 H14        14.5870    8.6067   -0.7155 H           1 H52       0.0480
     37 H15        16.8219    5.6024    3.3453 H           1 H52       0.0421
     38 H16        18.0544    6.3415    2.3605 H           1 H52       0.0421
     39 H17        16.3469    6.2591    1.7817 H           1 H52       0.0421
     40 H18        18.0084   12.0064    4.2307 H           1 H52       0.0643
     41 H19        19.3188   12.2940    2.2466 H           1 H52       0.0642
     42 H20        19.2781   10.6702    0.5280 H           1 H52       0.0657
     43 H21        16.4347   10.7361    5.5584 H           1 H52       0.0786
     44 H22        15.4195    6.9096    4.6662 H           1 H52       0.0687
@<TRIPOS>BOND
     1     1     2   2
     2     2     3   2
     3     2     4  am
     4     2    12   1
     5     4     5   1
     6     4    11   1
     7     5     6   1
     8     5     7   1
     9     7     8   1
    10     8     9   1
    11     9    10   1
    12    10    11   1
    13    12    13  ar
    14    12    19  ar
    15    13    14  ar
    16    13    16  ar
    17    14    15   1
    18    14    22  ar
    19    16    17  ar
    20    16    20  ar
    21    17    18  ar
    22    18    19  ar
    23    20    21  ar
    24    21    22  ar
    25     5    23   1
    26     6    24   1
    27     6    25   1
    28     6    26   1
    29     7    27   1
    30     7    28   1
    31     8    29   1
    32     8    30   1
    33     9    31   1
    34     9    32   1
    35    10    33   1
    36    10    34   1
    37    11    35   1
    38    11    36   1
    39    15    37   1
    40    15    38   1
    41    15    39   1
    42    17    40   1
    43    18    41   1
    44    19    42   1
    45    20    43   1
    46    22    44   1
@<TRIPOS>SUBSTRUCTURE
     1  H52      5

