@<TRIPOS>MOLECULE
1q8u_ligand_078
    44    46
SMALL
GAST_HUCK
****
This file was generated by PARSER (from files_GN.cpp)

@<TRIPOS>ATOM
      1 O1          7.5259    8.3209    2.3000 O.2         1 H52      -0.1497
      2 S5          7.9893    8.9000    3.7109 S.o2        1 H52       0.0732
      3 O2          8.0274    7.6044    4.6328 O.2         1 H52      -0.1497
      4 N21         6.6983    9.8665    4.2629 N.am        1 H52      -0.2257
      5 C22         6.3717    9.9134    5.6801 C.3         1 H52       0.0778
      6 C2M         7.1332   11.0618    6.3848 C.3         1 H52      -0.0402
      7 C23         4.8446   10.0040    5.9875 C.3         1 H52      -0.0136
      8 N24         4.0552    9.0580    5.1694 N.4         1 H52       0.2284
      9 C25         3.5863    9.5773    3.8615 C.3         1 H52      -0.0321
     10 C26         4.6923    9.8195    2.8014 C.3         1 H52       0.0045
     11 C27         5.9296   10.6161    3.2928 C.3         1 H52       0.0350
     12 C5          9.5893    9.6362    3.6200 C.ar        1 H52       0.1228
     13 C10        10.8556    8.9463    3.5565 C.ar        1 H52       0.0294
     14 C4         11.0760    7.5884    3.1347 C.ar        1 H52      -0.0110
     15 CM         10.1174    6.7755    2.3372 C.3         1 H52      -0.0231
     16 C9         12.0239    9.6990    3.9162 C.ar        1 H52       0.0043
     17 C8         11.9617   11.0888    4.1519 C.ar        1 H52      -0.0481
     18 C7         10.7441   11.7614    4.0525 C.ar        1 H52      -0.0552
     19 C6          9.5727   11.0385    3.8074 C.ar        1 H52      -0.0302
     20 C1         13.2802    9.0624    4.0248 C.ar        1 H52       0.0104
     21 N2         13.4039    7.7545    3.7282 N.ar        1 H52      -0.3085
     22 C3         12.3644    7.0193    3.2900 C.ar        1 H52       0.0074
     23 H1          6.6986    8.9881    6.1580 H           1 H52       0.0564
     24 H2          6.8738   11.0932    7.4442 H           1 H52       0.0250
     25 H3          6.8787   12.0214    5.9302 H           1 H52       0.0250
     26 H4          8.2099   10.9111    6.3073 H           1 H52       0.0250
     27 H5          4.4785   11.0292    5.8605 H           1 H52       0.0832
     28 H6          4.6811    9.7452    7.0358 H           1 H52       0.0832
     29 H7          3.2408    8.7775    5.7256 H           1 H52       0.2014
     30 H8          4.6196    8.2242    5.0135 H           1 H52       0.2014
     31 H9          3.0204   10.4992    4.0177 H           1 H52       0.0814
     32 H10         2.8935    8.8395    3.4533 H           1 H52       0.0814
     33 H11         4.2428   10.3653    1.9684 H           1 H52       0.0333
     34 H12         5.0172    8.8517    2.4132 H           1 H52       0.0333
     35 H13         6.5469   10.8692    2.4250 H           1 H52       0.0480
     36 H14         5.6041   11.5691    3.7140 H           1 H52       0.0480
     37 H15        10.6078    5.9821    1.7644 H           1 H52       0.0421
     38 H16         9.6392    7.4098    1.5893 H           1 H52       0.0421
     39 H17         9.3795    6.2962    2.9807 H           1 H52       0.0421
     40 H18        12.8084   11.6240    4.3684 H           1 H52       0.0643
     41 H19        10.7072   12.7691    4.2010 H           1 H52       0.0642
     42 H20         8.6989   11.5608    3.8068 H           1 H52       0.0657
     43 H21        14.1169    9.5733    4.3136 H           1 H52       0.0786
     44 H22        12.5525    6.0517    3.0256 H           1 H52       0.0687
@<TRIPOS>BOND
     1     1     2   2
     2     2     3   2
     3     2     4  am
     4     2    12   1
     5     4     5   1
     6     4    11   1
     7     5     6   1
     8     5     7   1
     9     7     8   1
    10     8     9   1
    11     9    10   1
    12    10    11   1
    13    12    13  ar
    14    12    19  ar
    15    13    14  ar
    16    13    16  ar
    17    14    15   1
    18    14    22  ar
    19    16    17  ar
    20    16    20  ar
    21    17    18  ar
    22    18    19  ar
    23    20    21  ar
    24    21    22  ar
    25     5    23   1
    26     6    24   1
    27     6    25   1
    28     6    26   1
    29     7    27   1
    30     7    28   1
    31     8    29   1
    32     8    30   1
    33     9    31   1
    34     9    32   1
    35    10    33   1
    36    10    34   1
    37    11    35   1
    38    11    36   1
    39    15    37   1
    40    15    38   1
    41    15    39   1
    42    17    40   1
    43    18    41   1
    44    19    42   1
    45    20    43   1
    46    22    44   1
@<TRIPOS>SUBSTRUCTURE
     1  H52      5

