@<TRIPOS>MOLECULE
1q8u_ligand_006
    44    46
SMALL
GAST_HUCK
****
This file was generated by PARSER (from files_GN.cpp)

@<TRIPOS>ATOM
      1 O1         15.7488    9.8873   -1.6004 O.2         1 H52      -0.1497
      2 S5         15.6675   10.6092   -0.1826 S.o2        1 H52       0.0732
      3 O2         17.0163   11.4611   -0.1276 O.2         1 H52      -0.1497
      4 N21        15.7705    9.2698    0.8729 N.am        1 H52      -0.2257
      5 C22        17.0178    8.9853    1.5705 C.3         1 H52       0.0778
      6 C2M        17.0335    9.6737    2.9597 C.3         1 H52      -0.0402
      7 C23        17.4325    7.4856    1.6459 C.3         1 H52      -0.0136
      8 N24        16.6643    6.6562    2.5981 N.4         1 H52       0.2284
      9 C25        15.3099    6.2520    2.1859 C.3         1 H52      -0.0321
     10 C26        14.3385    7.4381    1.9932 C.3         1 H52       0.0045
     11 C27        14.6768    8.3193    0.7615 C.3         1 H52       0.0350
     12 C5         14.4110   11.8157    0.1893 C.ar        1 H52       0.1228
     13 C10        13.9699   12.9477   -0.5920 C.ar        1 H52       0.0294
     14 C4         14.2383   13.2066   -1.9881 C.ar        1 H52      -0.0110
     15 CM         14.8457   12.2389   -2.9290 C.3         1 H52      -0.0231
     16 C9         13.1670   13.9359    0.0765 C.ar        1 H52       0.0043
     17 C8         12.7486   13.7745    1.4156 C.ar        1 H52      -0.0481
     18 C7         13.1261   12.6369    2.1272 C.ar        1 H52      -0.0552
     19 C6         13.9562   11.6920    1.5291 C.ar        1 H52      -0.0302
     20 C1         12.7637   15.1184   -0.5783 C.ar        1 H52       0.0104
     21 N2         13.1083   15.3300   -1.8622 N.ar        1 H52      -0.3085
     22 C3         13.8164   14.4271   -2.5637 C.ar        1 H52       0.0074
     23 H1         17.8394    9.4405    1.0052 H           1 H52       0.0564
     24 H2         17.9856    9.4885    3.4613 H           1 H52       0.0250
     25 H3         16.2324    9.3026    3.5982 H           1 H52       0.0250
     26 H4         16.9151   10.7539    2.8480 H           1 H52       0.0250
     27 H5         18.4715    7.4385    1.9783 H           1 H52       0.0832
     28 H6         17.4018    7.0472    0.6452 H           1 H52       0.0832
     29 H7         16.5963    7.1536    3.4848 H           1 H52       0.2014
     30 H8         17.2080    5.8037    2.7547 H           1 H52       0.2014
     31 H9         14.9097    5.6053    2.9675 H           1 H52       0.0814
     32 H10        15.3568    5.6600    1.2679 H           1 H52       0.0814
     33 H11        14.2961    8.0497    2.8977 H           1 H52       0.0333
     34 H12        13.3377    7.0222    1.8415 H           1 H52       0.0333
     35 H13        14.8830    7.6668   -0.0923 H           1 H52       0.0480
     36 H14        13.7508    8.8577    0.5177 H           1 H52       0.0480
     37 H15        14.7923   12.5462   -3.9798 H           1 H52       0.0421
     38 H16        14.2982   11.3042   -2.8622 H           1 H52       0.0421
     39 H17        15.8958   12.1121   -2.6810 H           1 H52       0.0421
     40 H18        12.1736   14.4759    1.8846 H           1 H52       0.0643
     41 H19        12.8315   12.5192    3.0982 H           1 H52       0.0642
     42 H20        14.2520   10.9105    2.1200 H           1 H52       0.0657
     43 H21        12.2112   15.8413   -0.1038 H           1 H52       0.0786
     44 H22        14.0188   14.6485   -3.5441 H           1 H52       0.0687
@<TRIPOS>BOND
     1     1     2   2
     2     2     3   2
     3     2     4  am
     4     2    12   1
     5     4     5   1
     6     4    11   1
     7     5     6   1
     8     5     7   1
     9     7     8   1
    10     8     9   1
    11     9    10   1
    12    10    11   1
    13    12    13  ar
    14    12    19  ar
    15    13    14  ar
    16    13    16  ar
    17    14    15   1
    18    14    22  ar
    19    16    17  ar
    20    16    20  ar
    21    17    18  ar
    22    18    19  ar
    23    20    21  ar
    24    21    22  ar
    25     5    23   1
    26     6    24   1
    27     6    25   1
    28     6    26   1
    29     7    27   1
    30     7    28   1
    31     8    29   1
    32     8    30   1
    33     9    31   1
    34     9    32   1
    35    10    33   1
    36    10    34   1
    37    11    35   1
    38    11    36   1
    39    15    37   1
    40    15    38   1
    41    15    39   1
    42    17    40   1
    43    18    41   1
    44    19    42   1
    45    20    43   1
    46    22    44   1
@<TRIPOS>SUBSTRUCTURE
     1  H52      5

