@<TRIPOS>MOLECULE
1q8u_ligand_052
    44    46
SMALL
GAST_HUCK
****
This file was generated by PARSER (from files_GN.cpp)

@<TRIPOS>ATOM
      1 O1         20.5587   10.3122   -0.6416 O.2         1 H52      -0.1497
      2 S5         19.1196    9.8193   -0.1747 S.o2        1 H52       0.0732
      3 O2         19.3530    8.2660   -0.4212 O.2         1 H52      -0.1497
      4 N21        18.0822   10.4741   -1.3622 N.am        1 H52      -0.2257
      5 C22        16.7505   10.9313   -0.9932 C.3         1 H52       0.0778
      6 C2M        16.3381   12.2739   -1.6486 C.3         1 H52      -0.0402
      7 C23        15.6763    9.8278   -1.2161 C.3         1 H52      -0.0136
      8 N24        15.5336    9.3403   -2.6044 N.4         1 H52       0.2284
      9 C25        16.7129    8.7157   -3.2418 C.3         1 H52      -0.0321
     10 C26        17.6691    9.7924   -3.7991 C.3         1 H52       0.0045
     11 C27        18.5552   10.4957   -2.7365 C.3         1 H52       0.0350
     12 C5         18.9293   10.3705    1.4981 C.ar        1 H52       0.1228
     13 C10        18.0174    9.8602    2.4968 C.ar        1 H52       0.0294
     14 C4         17.3031    8.6039    2.4733 C.ar        1 H52      -0.0110
     15 CM         17.6593    7.4279    1.6375 C.3         1 H52      -0.0231
     16 C9         17.7963   10.6778    3.6608 C.ar        1 H52       0.0043
     17 C8         18.5366   11.8586    3.8902 C.ar        1 H52      -0.0481
     18 C7         19.4738   12.2881    2.9539 C.ar        1 H52      -0.0552
     19 C6         19.6377   11.5757    1.7674 C.ar        1 H52      -0.0302
     20 C1         16.8246   10.3285    4.6164 C.ar        1 H52       0.0104
     21 N2         16.0815    9.2158    4.4634 N.ar        1 H52      -0.3085
     22 C3         16.2889    8.3708    3.4357 C.ar        1 H52       0.0074
     23 H1         16.7354   11.1436    0.0827 H           1 H52       0.0564
     24 H2         15.4413   12.6708   -1.1678 H           1 H52       0.0250
     25 H3         16.1252   12.1450   -2.7094 H           1 H52       0.0250
     26 H4         17.1372   13.0070   -1.5402 H           1 H52       0.0250
     27 H5         14.7016   10.2169   -0.9139 H           1 H52       0.0832
     28 H6         15.8840    8.9727   -0.5656 H           1 H52       0.0832
     29 H7         15.2274   10.1207   -3.1907 H           1 H52       0.2014
     30 H8         14.7872    8.6427   -2.6002 H           1 H52       0.2014
     31 H9         16.3465    8.1146   -4.0749 H           1 H52       0.0814
     32 H10        17.2346    8.0451   -2.5519 H           1 H52       0.0814
     33 H11        17.0779   10.5418   -4.3360 H           1 H52       0.0333
     34 H12        18.3190    9.3241   -4.5426 H           1 H52       0.0333
     35 H13        19.5474   10.0416   -2.8162 H           1 H52       0.0480
     36 H14        18.6948   11.5425   -3.0239 H           1 H52       0.0480
     37 H15        17.1566    6.5020    1.9565 H           1 H52       0.0421
     38 H16        18.7302    7.2478    1.7337 H           1 H52       0.0421
     39 H17        17.3660    7.5974    0.6048 H           1 H52       0.0421
     40 H18        18.3907   12.4211    4.7313 H           1 H52       0.0643
     41 H19        19.9958   13.1539    3.1130 H           1 H52       0.0642
     42 H20        20.2737   11.9923    1.0854 H           1 H52       0.0657
     43 H21        16.6427   10.9151    5.4383 H           1 H52       0.0786
     44 H22        15.7192    7.5217    3.4109 H           1 H52       0.0687
@<TRIPOS>BOND
     1     1     2   2
     2     2     3   2
     3     2     4  am
     4     2    12   1
     5     4     5   1
     6     4    11   1
     7     5     6   1
     8     5     7   1
     9     7     8   1
    10     8     9   1
    11     9    10   1
    12    10    11   1
    13    12    13  ar
    14    12    19  ar
    15    13    14  ar
    16    13    16  ar
    17    14    15   1
    18    14    22  ar
    19    16    17  ar
    20    16    20  ar
    21    17    18  ar
    22    18    19  ar
    23    20    21  ar
    24    21    22  ar
    25     5    23   1
    26     6    24   1
    27     6    25   1
    28     6    26   1
    29     7    27   1
    30     7    28   1
    31     8    29   1
    32     8    30   1
    33     9    31   1
    34     9    32   1
    35    10    33   1
    36    10    34   1
    37    11    35   1
    38    11    36   1
    39    15    37   1
    40    15    38   1
    41    15    39   1
    42    17    40   1
    43    18    41   1
    44    19    42   1
    45    20    43   1
    46    22    44   1
@<TRIPOS>SUBSTRUCTURE
     1  H52      5

