@<TRIPOS>MOLECULE
1q8u_ligand_042
    44    46
SMALL
GAST_HUCK
****
This file was generated by PARSER (from files_GN.cpp)

@<TRIPOS>ATOM
      1 O1         15.6319    7.0038   -2.8765 O.2         1 H52      -0.1497
      2 S5         16.4669    7.7454   -1.7436 S.o2        1 H52       0.0732
      3 O2         17.1338    6.4857   -1.0232 O.2         1 H52      -0.1497
      4 N21        15.5074    8.4683   -0.5342 N.am        1 H52      -0.2257
      5 C22        15.5266    9.9124   -0.3616 C.3         1 H52       0.0778
      6 C2M        14.1348   10.5533   -0.6198 C.3         1 H52      -0.0402
      7 C23        16.1531   10.3465    0.9935 C.3         1 H52      -0.0136
      8 N24        15.3629    9.9309    2.1709 N.4         1 H52       0.2284
      9 C25        15.6111    8.5820    2.7238 C.3         1 H52      -0.0321
     10 C26        15.6570    7.4020    1.7136 C.3         1 H52       0.0045
     11 C27        14.8299    7.6085    0.4168 C.3         1 H52       0.0350
     12 C5         17.8639    8.6572   -2.3334 C.ar        1 H52       0.1228
     13 C10        18.0830    9.1763   -3.6586 C.ar        1 H52       0.0294
     14 C4         17.0809    9.4224   -4.6646 C.ar        1 H52      -0.0110
     15 CM         15.6159    9.5399   -4.4101 C.3         1 H52      -0.0231
     16 C9         19.4309    9.5142   -4.0107 C.ar        1 H52       0.0043
     17 C8         20.4677    9.4885   -3.0525 C.ar        1 H52      -0.0481
     18 C7         20.1920    9.1388   -1.7296 C.ar        1 H52      -0.0552
     19 C6         18.9058    8.7349   -1.3758 C.ar        1 H52      -0.0302
     20 C1         19.7559    9.9041   -5.3240 C.ar        1 H52       0.0104
     21 N2         18.7884   10.0099   -6.2546 N.ar        1 H52      -0.3085
     22 C3         17.4917    9.7864   -5.9697 C.ar        1 H52       0.0074
     23 H1         16.1819   10.3608   -1.1139 H           1 H52       0.0564
     24 H2         14.2241   11.6404   -0.6364 H           1 H52       0.0250
     25 H3         13.4184   10.2809    0.1513 H           1 H52       0.0250
     26 H4         13.7392   10.2316   -1.5839 H           1 H52       0.0250
     27 H5         16.2045   11.4350    1.0078 H           1 H52       0.0832
     28 H6         17.1790    9.9764    1.0708 H           1 H52       0.0832
     29 H7         14.3717   10.0001    1.9351 H           1 H52       0.2014
     30 H8         15.5469   10.6028    2.9186 H           1 H52       0.2014
     31 H9         14.8113    8.3953    3.4456 H           1 H52       0.0814
     32 H10        16.5480    8.6068    3.2853 H           1 H52       0.0814
     33 H11        15.2924    6.5036    2.2199 H           1 H52       0.0333
     34 H12        16.6998    7.2116    1.4477 H           1 H52       0.0333
     35 H13        14.6339    6.6287   -0.0314 H           1 H52       0.0480
     36 H14        13.8516    8.0140    0.6719 H           1 H52       0.0480
     37 H15        15.1444   10.2827   -5.0730 H           1 H52       0.0421
     38 H16        15.4379    9.8935   -3.3925 H           1 H52       0.0421
     39 H17        15.1193    8.5672   -4.5672 H           1 H52       0.0421
     40 H18        21.4223    9.7542   -3.3002 H           1 H52       0.0643
     41 H19        20.9351    9.1382   -1.0285 H           1 H52       0.0642
     42 H20        18.7487    8.4436   -0.4061 H           1 H52       0.0657
     43 H21        20.7160   10.1232   -5.5980 H           1 H52       0.0786
     44 H22        16.8093    9.9427   -6.7152 H           1 H52       0.0687
@<TRIPOS>BOND
     1     1     2   2
     2     2     3   2
     3     2     4  am
     4     2    12   1
     5     4     5   1
     6     4    11   1
     7     5     6   1
     8     5     7   1
     9     7     8   1
    10     8     9   1
    11     9    10   1
    12    10    11   1
    13    12    13  ar
    14    12    19  ar
    15    13    14  ar
    16    13    16  ar
    17    14    15   1
    18    14    22  ar
    19    16    17  ar
    20    16    20  ar
    21    17    18  ar
    22    18    19  ar
    23    20    21  ar
    24    21    22  ar
    25     5    23   1
    26     6    24   1
    27     6    25   1
    28     6    26   1
    29     7    27   1
    30     7    28   1
    31     8    29   1
    32     8    30   1
    33     9    31   1
    34     9    32   1
    35    10    33   1
    36    10    34   1
    37    11    35   1
    38    11    36   1
    39    15    37   1
    40    15    38   1
    41    15    39   1
    42    17    40   1
    43    18    41   1
    44    19    42   1
    45    20    43   1
    46    22    44   1
@<TRIPOS>SUBSTRUCTURE
     1  H52      5

