@<TRIPOS>MOLECULE
1q8u_ligand_020
    44    46
SMALL
GAST_HUCK
****
This file was generated by PARSER (from files_GN.cpp)

@<TRIPOS>ATOM
      1 O1         12.8862    9.4549    5.8229 O.2         1 H52      -0.1497
      2 S5         12.6670    9.2764    4.2505 S.o2        1 H52       0.0732
      3 O2         12.6745   10.8591    4.0496 O.2         1 H52      -0.1497
      4 N21        11.0815    8.8527    3.8069 N.am        1 H52      -0.2257
      5 C22        10.3708    7.8237    4.5471 C.3         1 H52       0.0778
      6 C2M         9.5662    8.4573    5.7186 C.3         1 H52      -0.0402
      7 C23         9.4640    6.8833    3.6856 C.3         1 H52      -0.0136
      8 N24        10.0943    6.2551    2.5001 N.4         1 H52       0.2284
      9 C25        11.0005    7.0343    1.6246 C.3         1 H52      -0.0321
     10 C26        10.6005    8.5091    1.3572 C.3         1 H52       0.0045
     11 C27        10.4808    9.4203    2.6164 C.3         1 H52       0.0350
     12 C5         14.0589    8.7265    3.3128 C.ar        1 H52       0.1228
     13 C10        15.0844    7.7875    3.7007 C.ar        1 H52       0.0294
     14 C4         15.0514    6.8731    4.8129 C.ar        1 H52      -0.0110
     15 CM         13.8284    6.4673    5.5487 C.3         1 H52      -0.0231
     16 C9         16.2554    7.7220    2.8667 C.ar        1 H52       0.0043
     17 C8         16.3423    8.4330    1.6545 C.ar        1 H52      -0.0481
     18 C7         15.2929    9.2505    1.2442 C.ar        1 H52      -0.0552
     19 C6         14.1792    9.4047    2.0714 C.ar        1 H52      -0.0302
     20 C1         17.3550    6.9149    3.2285 C.ar        1 H52       0.0104
     21 N2         17.3103    6.1662    4.3434 N.ar        1 H52      -0.3085
     22 C3         16.2144    6.1209    5.1267 C.ar        1 H52       0.0074
     23 H1         11.1070    7.1563    5.0103 H           1 H52       0.0564
     24 H2          9.1062    7.6817    6.3382 H           1 H52       0.0250
     25 H3          8.7789    9.1125    5.3474 H           1 H52       0.0250
     26 H4         10.2272    9.0465    6.3577 H           1 H52       0.0250
     27 H5          8.5757    7.4187    3.3489 H           1 H52       0.0832
     28 H6          9.1097    6.0609    4.3121 H           1 H52       0.0832
     29 H7          9.3384    5.8999    1.9089 H           1 H52       0.2014
     30 H8         10.6249    5.4477    2.8351 H           1 H52       0.2014
     31 H9         11.0435    6.5164    0.6652 H           1 H52       0.0814
     32 H10        12.0039    7.0000    2.0490 H           1 H52       0.0814
     33 H11         9.6516    8.5195    0.8159 H           1 H52       0.0333
     34 H12        11.3519    8.9347    0.6861 H           1 H52       0.0333
     35 H13        10.9032   10.3983    2.3798 H           1 H52       0.0480
     36 H14         9.4216    9.6182    2.8131 H           1 H52       0.0480
     37 H15        13.9568    5.5400    6.1108 H           1 H52       0.0421
     38 H16        13.0285    6.2740    4.8299 H           1 H52       0.0421
     39 H17        13.5191    7.2291    6.2589 H           1 H52       0.0421
     40 H18        17.1635    8.3505    1.0517 H           1 H52       0.0643
     41 H19        15.3566    9.7622    0.3620 H           1 H52       0.0642
     42 H20        13.4615   10.0595    1.7516 H           1 H52       0.0657
     43 H21        18.2007    6.8755    2.6599 H           1 H52       0.0786
     44 H22        16.2421    5.4728    5.9189 H           1 H52       0.0687
@<TRIPOS>BOND
     1     1     2   2
     2     2     3   2
     3     2     4  am
     4     2    12   1
     5     4     5   1
     6     4    11   1
     7     5     6   1
     8     5     7   1
     9     7     8   1
    10     8     9   1
    11     9    10   1
    12    10    11   1
    13    12    13  ar
    14    12    19  ar
    15    13    14  ar
    16    13    16  ar
    17    14    15   1
    18    14    22  ar
    19    16    17  ar
    20    16    20  ar
    21    17    18  ar
    22    18    19  ar
    23    20    21  ar
    24    21    22  ar
    25     5    23   1
    26     6    24   1
    27     6    25   1
    28     6    26   1
    29     7    27   1
    30     7    28   1
    31     8    29   1
    32     8    30   1
    33     9    31   1
    34     9    32   1
    35    10    33   1
    36    10    34   1
    37    11    35   1
    38    11    36   1
    39    15    37   1
    40    15    38   1
    41    15    39   1
    42    17    40   1
    43    18    41   1
    44    19    42   1
    45    20    43   1
    46    22    44   1
@<TRIPOS>SUBSTRUCTURE
     1  H52      5

