@<TRIPOS>MOLECULE
1q8u_ligand_083
    44    46
SMALL
GAST_HUCK
****
This file was generated by PARSER (from files_GN.cpp)

@<TRIPOS>ATOM
      1 O1         11.7735    8.4510    2.4805 O.2         1 H52      -0.1497
      2 S5         11.2012    9.9315    2.4715 S.o2        1 H52       0.0732
      3 O2          9.9557    9.7296    1.5017 O.2         1 H52      -0.1497
      4 N21        12.1854   11.0760    1.6835 N.am        1 H52      -0.2257
      5 C22        12.9775   10.6359    0.5444 C.3         1 H52       0.0778
      6 C2M        12.0991   10.4833   -0.7343 C.3         1 H52      -0.0402
      7 C23        14.2634   11.4657    0.2392 C.3         1 H52      -0.0136
      8 N24        14.0068   12.7731   -0.4016 N.4         1 H52       0.2284
      9 C25        13.5541   13.8610    0.4810 C.3         1 H52      -0.0321
     10 C26        12.1974   13.5842    1.1737 C.3         1 H52       0.0045
     11 C27        12.2325   12.4264    2.2085 C.3         1 H52       0.0350
     12 C5         10.5619   10.3053    4.0757 C.ar        1 H52       0.1228
     13 C10        11.1549    9.9941    5.3498 C.ar        1 H52       0.0294
     14 C4         12.5266    9.6334    5.6070 C.ar        1 H52      -0.0110
     15 CM         13.6530    9.7035    4.6349 C.3         1 H52      -0.0231
     16 C9         10.2834   10.0814    6.4983 C.ar        1 H52       0.0043
     17 C8          8.9671   10.5755    6.4018 C.ar        1 H52      -0.0481
     18 C7          8.4812   11.0324    5.1790 C.ar        1 H52      -0.0552
     19 C6          9.2700   10.8919    4.0311 C.ar        1 H52      -0.0302
     20 C1         10.7452    9.6966    7.7747 C.ar        1 H52       0.0104
     21 N2         12.0188    9.3097    7.9468 N.ar        1 H52      -0.3085
     22 C3         12.9001    9.2762    6.9245 C.ar        1 H52       0.0074
     23 H1         13.3614    9.6337    0.7722 H           1 H52       0.0564
     24 H2         12.7191   10.3840   -1.6280 H           1 H52       0.0250
     25 H3         11.4502   11.3492   -0.8620 H           1 H52       0.0250
     26 H4         11.4761    9.5927   -0.6668 H           1 H52       0.0250
     27 H5         14.8845   10.8967   -0.4605 H           1 H52       0.0832
     28 H6         14.8600   11.5934    1.1510 H           1 H52       0.0832
     29 H7         13.3111   12.6445   -1.1389 H           1 H52       0.2014
     30 H8         14.8753   13.0760   -0.8426 H           1 H52       0.2014
     31 H9         13.4536   14.7578   -0.1343 H           1 H52       0.0814
     32 H10        14.3213   14.0680    1.2313 H           1 H52       0.0814
     33 H11        11.4313   13.3927    0.4196 H           1 H52       0.0333
     34 H12        11.9117   14.5021    1.6997 H           1 H52       0.0333
     35 H13        13.1347   12.5282    2.8109 H           1 H52       0.0480
     36 H14        11.3977   12.6091    2.8857 H           1 H52       0.0480
     37 H15        14.6240    9.8016    5.1263 H           1 H52       0.0421
     38 H16        13.5595   10.5715    4.0056 H           1 H52       0.0421
     39 H17        13.6937    8.8049    4.0350 H           1 H52       0.0421
     40 H18         8.3633   10.6494    7.2231 H           1 H52       0.0643
     41 H19         7.5467   11.4410    5.1119 H           1 H52       0.0642
     42 H20         8.8576   11.2124    3.1491 H           1 H52       0.0657
     43 H21        10.1321    9.7205    8.5956 H           1 H52       0.0786
     44 H22        13.8572    8.9959    7.1519 H           1 H52       0.0687
@<TRIPOS>BOND
     1     1     2   2
     2     2     3   2
     3     2     4  am
     4     2    12   1
     5     4     5   1
     6     4    11   1
     7     5     6   1
     8     5     7   1
     9     7     8   1
    10     8     9   1
    11     9    10   1
    12    10    11   1
    13    12    13  ar
    14    12    19  ar
    15    13    14  ar
    16    13    16  ar
    17    14    15   1
    18    14    22  ar
    19    16    17  ar
    20    16    20  ar
    21    17    18  ar
    22    18    19  ar
    23    20    21  ar
    24    21    22  ar
    25     5    23   1
    26     6    24   1
    27     6    25   1
    28     6    26   1
    29     7    27   1
    30     7    28   1
    31     8    29   1
    32     8    30   1
    33     9    31   1
    34     9    32   1
    35    10    33   1
    36    10    34   1
    37    11    35   1
    38    11    36   1
    39    15    37   1
    40    15    38   1
    41    15    39   1
    42    17    40   1
    43    18    41   1
    44    19    42   1
    45    20    43   1
    46    22    44   1
@<TRIPOS>SUBSTRUCTURE
     1  H52      5

