@<TRIPOS>MOLECULE
1q8u_ligand_039
    44    46
SMALL
GAST_HUCK
****
This file was generated by PARSER (from files_GN.cpp)

@<TRIPOS>ATOM
      1 O1         18.6927    8.0776   -0.2828 O.2         1 H52      -0.1497
      2 S5         17.1701    8.4395   -0.5743 S.o2        1 H52       0.0732
      3 O2         17.0712   10.0183   -0.4321 O.2         1 H52      -0.1497
      4 N21        16.2334    7.8669    0.7302 N.am        1 H52      -0.2257
      5 C22        16.8839    7.1390    1.8135 C.3         1 H52       0.0778
      6 C2M        17.6100    8.1100    2.7902 C.3         1 H52      -0.0402
      7 C23        15.9968    6.1068    2.5809 C.3         1 H52      -0.0136
      8 N24        15.0499    6.7031    3.5456 N.4         1 H52       0.2284
      9 C25        13.8461    7.3463    2.9874 C.3         1 H52      -0.0321
     10 C26        14.1172    8.5265    2.0206 C.3         1 H52       0.0045
     11 C27        14.8029    8.1262    0.6862 C.3         1 H52       0.0350
     12 C5         16.7816    7.9391   -2.2227 C.ar        1 H52       0.1228
     13 C10        17.2372    8.5457   -3.4517 C.ar        1 H52       0.0294
     14 C4         18.3840    9.3990   -3.6367 C.ar        1 H52      -0.0110
     15 CM         19.4810    9.6177   -2.6539 C.3         1 H52      -0.0231
     16 C9         16.4686    8.2518   -4.6333 C.ar        1 H52       0.0043
     17 C8         15.4240    7.3034   -4.6316 C.ar        1 H52      -0.0481
     18 C7         15.1175    6.6156   -3.4522 C.ar        1 H52      -0.0552
     19 C6         15.7960    6.9280   -2.2716 C.ar        1 H52      -0.0302
     20 C1         16.7503    8.9001   -5.8560 C.ar        1 H52       0.0104
     21 N2         17.7993    9.7354   -5.9564 N.ar        1 H52      -0.3085
     22 C3         18.6137    9.9808   -4.9140 C.ar        1 H52       0.0074
     23 H1         17.6674    6.5185    1.3641 H           1 H52       0.0564
     24 H2         18.1917    7.5468    3.5242 H           1 H52       0.0250
     25 H3         16.8965    8.7426    3.3193 H           1 H52       0.0250
     26 H4         18.2964    8.7655    2.2530 H           1 H52       0.0250
     27 H5         16.6540    5.4547    3.1599 H           1 H52       0.0832
     28 H6         15.4558    5.4712    1.8744 H           1 H52       0.0832
     29 H7         15.5507    7.3835    4.1184 H           1 H52       0.2014
     30 H8         14.7255    5.9578    4.1663 H           1 H52       0.2014
     31 H9         13.2749    7.7334    3.8349 H           1 H52       0.0814
     32 H10        13.2212    6.5950    2.4919 H           1 H52       0.0814
     33 H11        14.7051    9.2978    2.5213 H           1 H52       0.0333
     34 H12        13.1442    8.9691    1.7809 H           1 H52       0.0333
     35 H13        14.3071    7.2342    0.2971 H           1 H52       0.0480
     36 H14        14.5890    8.9371   -0.0201 H           1 H52       0.0480
     37 H15        20.3404   10.1521   -3.0701 H           1 H52       0.0421
     38 H16        19.8618    8.6524   -2.3180 H           1 H52       0.0421
     39 H17        19.1327   10.2140   -1.8183 H           1 H52       0.0421
     40 H18        14.8859    7.0943   -5.4801 H           1 H52       0.0643
     41 H19        14.3743    5.9107   -3.4582 H           1 H52       0.0642
     42 H20        15.5236    6.4160   -1.4258 H           1 H52       0.0657
     43 H21        16.1838    8.7344   -6.6904 H           1 H52       0.0786
     44 H22        19.4229   10.5788   -5.0931 H           1 H52       0.0687
@<TRIPOS>BOND
     1     1     2   2
     2     2     3   2
     3     2     4  am
     4     2    12   1
     5     4     5   1
     6     4    11   1
     7     5     6   1
     8     5     7   1
     9     7     8   1
    10     8     9   1
    11     9    10   1
    12    10    11   1
    13    12    13  ar
    14    12    19  ar
    15    13    14  ar
    16    13    16  ar
    17    14    15   1
    18    14    22  ar
    19    16    17  ar
    20    16    20  ar
    21    17    18  ar
    22    18    19  ar
    23    20    21  ar
    24    21    22  ar
    25     5    23   1
    26     6    24   1
    27     6    25   1
    28     6    26   1
    29     7    27   1
    30     7    28   1
    31     8    29   1
    32     8    30   1
    33     9    31   1
    34     9    32   1
    35    10    33   1
    36    10    34   1
    37    11    35   1
    38    11    36   1
    39    15    37   1
    40    15    38   1
    41    15    39   1
    42    17    40   1
    43    18    41   1
    44    19    42   1
    45    20    43   1
    46    22    44   1
@<TRIPOS>SUBSTRUCTURE
     1  H52      5

