@<TRIPOS>MOLECULE
1q8u_ligand_080
    44    46
SMALL
GAST_HUCK
****
This file was generated by PARSER (from files_GN.cpp)

@<TRIPOS>ATOM
      1 O1         14.7557   11.2942    1.0036 O.2         1 H52      -0.1497
      2 S5         15.3855    9.8977    0.5938 S.o2        1 H52       0.0732
      3 O2         16.6283   10.0266    1.5807 O.2         1 H52      -0.1497
      4 N21        16.1119    9.9002   -0.9479 N.am        1 H52      -0.2257
      5 C22        15.6761   10.8626   -1.9384 C.3         1 H52       0.0778
      6 C2M        16.4407   12.1986   -1.7317 C.3         1 H52      -0.0402
      7 C23        15.7935   10.3940   -3.4238 C.3         1 H52      -0.0136
      8 N24        15.3649    8.9955   -3.6717 N.4         1 H52       0.2284
      9 C25        16.3685    7.9364   -3.4114 C.3         1 H52      -0.0321
     10 C26        16.7135    7.7194   -1.9175 C.3         1 H52       0.0045
     11 C27        17.2121    9.0021   -1.2058 C.3         1 H52       0.0350
     12 C5         14.4759    8.4941    1.1435 C.ar        1 H52       0.1228
     13 C10        13.0884    8.4686    1.5252 C.ar        1 H52       0.0294
     14 C4         12.0819    9.4166    1.1392 C.ar        1 H52      -0.0110
     15 CM         12.1613   10.3699   -0.0010 C.3         1 H52      -0.0231
     16 C9         12.6733    7.3967    2.3877 C.ar        1 H52       0.0043
     17 C8         13.5356    6.3261    2.7038 C.ar        1 H52      -0.0481
     18 C7         14.8305    6.2944    2.1818 C.ar        1 H52      -0.0552
     19 C6         15.2957    7.3770    1.4297 C.ar        1 H52      -0.0302
     20 C1         11.3816    7.3983    2.9564 C.ar        1 H52       0.0104
     21 N2         10.5135    8.3849    2.6569 N.ar        1 H52      -0.3085
     22 C3         10.8214    9.3686    1.7849 C.ar        1 H52       0.0074
     23 H1         14.6167   11.0817   -1.7826 H           1 H52       0.0564
     24 H2         15.9813   12.9921   -2.3214 H           1 H52       0.0250
     25 H3         17.4855   12.0975   -2.0322 H           1 H52       0.0250
     26 H4         16.4154   12.5037   -0.6854 H           1 H52       0.0250
     27 H5         16.8171   10.5263   -3.7872 H           1 H52       0.0832
     28 H6         15.1592   11.0380   -4.0383 H           1 H52       0.0832
     29 H7         15.1346    8.9347   -4.6656 H           1 H52       0.2014
     30 H8         14.5125    8.7841   -3.1485 H           1 H52       0.2014
     31 H9         17.2835    8.1505   -3.9721 H           1 H52       0.0814
     32 H10        15.9630    7.0007   -3.8029 H           1 H52       0.0814
     33 H11        17.4988    6.9601   -1.8539 H           1 H52       0.0333
     34 H12        15.8333    7.3283   -1.3991 H           1 H52       0.0333
     35 H13        17.7205    8.7179   -0.2813 H           1 H52       0.0480
     36 H14        17.9744    9.4926   -1.8180 H           1 H52       0.0480
     37 H15        11.2079   10.4193   -0.5374 H           1 H52       0.0421
     38 H16        12.9006   10.0487   -0.7292 H           1 H52       0.0421
     39 H17        12.3906   11.3739    0.3627 H           1 H52       0.0421
     40 H18        13.2264    5.5549    3.3029 H           1 H52       0.0643
     41 H19        15.4555    5.5155    2.4031 H           1 H52       0.0642
     42 H20        16.2788    7.3545    1.1515 H           1 H52       0.0657
     43 H21        11.0833    6.6679    3.6089 H           1 H52       0.0786
     44 H22        10.0911   10.0508    1.5653 H           1 H52       0.0687
@<TRIPOS>BOND
     1     1     2   2
     2     2     3   2
     3     2     4  am
     4     2    12   1
     5     4     5   1
     6     4    11   1
     7     5     6   1
     8     5     7   1
     9     7     8   1
    10     8     9   1
    11     9    10   1
    12    10    11   1
    13    12    13  ar
    14    12    19  ar
    15    13    14  ar
    16    13    16  ar
    17    14    15   1
    18    14    22  ar
    19    16    17  ar
    20    16    20  ar
    21    17    18  ar
    22    18    19  ar
    23    20    21  ar
    24    21    22  ar
    25     5    23   1
    26     6    24   1
    27     6    25   1
    28     6    26   1
    29     7    27   1
    30     7    28   1
    31     8    29   1
    32     8    30   1
    33     9    31   1
    34     9    32   1
    35    10    33   1
    36    10    34   1
    37    11    35   1
    38    11    36   1
    39    15    37   1
    40    15    38   1
    41    15    39   1
    42    17    40   1
    43    18    41   1
    44    19    42   1
    45    20    43   1
    46    22    44   1
@<TRIPOS>SUBSTRUCTURE
     1  H52      5

