@<TRIPOS>MOLECULE
1q8u_ligand_061
    44    46
SMALL
GAST_HUCK
****
This file was generated by PARSER (from files_GN.cpp)

@<TRIPOS>ATOM
      1 O1         13.8911    8.9214    5.7081 O.2         1 H52      -0.1497
      2 S5         13.4932    8.2379    4.3228 S.o2        1 H52       0.0732
      3 O2         12.7437    7.0183    5.0167 O.2         1 H52      -0.1497
      4 N21        14.9925    7.7943    3.6553 N.am        1 H52      -0.2257
      5 C22        15.1346    6.5273    2.9551 C.3         1 H52       0.0778
      6 C2M        14.8404    6.7017    1.4404 C.3         1 H52      -0.0402
      7 C23        16.5003    5.8038    3.1440 C.3         1 H52      -0.0136
      8 N24        17.0588    5.9090    4.5101 N.4         1 H52       0.2284
      9 C25        17.8691    7.1234    4.7806 C.3         1 H52      -0.0321
     10 C26        17.0308    8.4127    4.9386 C.3         1 H52       0.0045
     11 C27        16.0954    8.7268    3.7424 C.3         1 H52       0.0350
     12 C5         12.5476    9.3893    3.3730 C.ar        1 H52       0.1228
     13 C10        11.7631    9.1035    2.1942 C.ar        1 H52       0.0294
     14 C4         11.2247    7.8320    1.7903 C.ar        1 H52      -0.0110
     15 CM         11.1399    6.6225    2.6468 C.3         1 H52      -0.0231
     16 C9         11.4807   10.2137    1.3196 C.ar        1 H52       0.0043
     17 C8         11.8181   11.5380    1.6678 C.ar        1 H52      -0.0481
     18 C7         12.4488   11.8044    2.8826 C.ar        1 H52      -0.0552
     19 C6         12.8198   10.7398    3.7097 C.ar        1 H52      -0.0302
     20 C1         10.8606   10.0086    0.0711 C.ar        1 H52       0.0104
     21 N2         10.4657    8.7765   -0.2970 N.ar        1 H52      -0.3085
     22 C3         10.6171    7.7125    0.5140 C.ar        1 H52       0.0074
     23 H1         14.3811    5.8315    3.3385 H           1 H52       0.0564
     24 H2         14.8099    5.7243    0.9500 H           1 H52       0.0250
     25 H3         15.6063    7.3157    0.9609 H           1 H52       0.0250
     26 H4         13.8754    7.1885    1.2965 H           1 H52       0.0250
     27 H5         17.2376    6.1595    2.4191 H           1 H52       0.0832
     28 H6         16.3578    4.7403    2.9471 H           1 H52       0.0832
     29 H7         17.6704    5.1045    4.6474 H           1 H52       0.2014
     30 H8         16.2991    5.8531    5.1926 H           1 H52       0.2014
     31 H9         18.6202    7.2620    3.9950 H           1 H52       0.0814
     32 H10        18.4175    6.9515    5.7118 H           1 H52       0.0814
     33 H11        17.7236    9.2518    5.0642 H           1 H52       0.0333
     34 H12        16.4423    8.3362    5.8572 H           1 H52       0.0333
     35 H13        15.7301    9.7499    3.8534 H           1 H52       0.0480
     36 H14        16.6754    8.7157    2.8162 H           1 H52       0.0480
     37 H15        10.5093    5.8357    2.2215 H           1 H52       0.0421
     38 H16        10.7017    6.8870    3.6109 H           1 H52       0.0421
     39 H17        12.1278    6.1901    2.7631 H           1 H52       0.0421
     40 H18        11.6029   12.3224    1.0449 H           1 H52       0.0643
     41 H19        12.6927   12.7640    3.1348 H           1 H52       0.0642
     42 H20        13.3463   10.9902    4.5490 H           1 H52       0.0657
     43 H21        10.6912   10.7844   -0.5767 H           1 H52       0.0786
     44 H22        10.2537    6.8189    0.1765 H           1 H52       0.0687
@<TRIPOS>BOND
     1     1     2   2
     2     2     3   2
     3     2     4  am
     4     2    12   1
     5     4     5   1
     6     4    11   1
     7     5     6   1
     8     5     7   1
     9     7     8   1
    10     8     9   1
    11     9    10   1
    12    10    11   1
    13    12    13  ar
    14    12    19  ar
    15    13    14  ar
    16    13    16  ar
    17    14    15   1
    18    14    22  ar
    19    16    17  ar
    20    16    20  ar
    21    17    18  ar
    22    18    19  ar
    23    20    21  ar
    24    21    22  ar
    25     5    23   1
    26     6    24   1
    27     6    25   1
    28     6    26   1
    29     7    27   1
    30     7    28   1
    31     8    29   1
    32     8    30   1
    33     9    31   1
    34     9    32   1
    35    10    33   1
    36    10    34   1
    37    11    35   1
    38    11    36   1
    39    15    37   1
    40    15    38   1
    41    15    39   1
    42    17    40   1
    43    18    41   1
    44    19    42   1
    45    20    43   1
    46    22    44   1
@<TRIPOS>SUBSTRUCTURE
     1  H52      5

