@<TRIPOS>MOLECULE
1q8u_ligand_010
    44    46
SMALL
GAST_HUCK
****
This file was generated by PARSER (from files_GN.cpp)

@<TRIPOS>ATOM
      1 O1         18.3252    7.6193   -0.9612 O.2         1 H52      -0.1497
      2 S5         18.0537    9.0810   -0.4008 S.o2        1 H52       0.0732
      3 O2         17.0217    8.5033    0.6661 O.2         1 H52      -0.1497
      4 N21        17.2938    9.8606   -1.7106 N.am        1 H52      -0.2257
      5 C22        15.9384   10.3661   -1.5847 C.3         1 H52       0.0778
      6 C2M        15.9342   11.8673   -1.1739 C.3         1 H52      -0.0402
      7 C23        15.0419   10.1583   -2.8505 C.3         1 H52      -0.0136
      8 N24        15.2600    8.8493   -3.5170 N.4         1 H52       0.2284
      9 C25        16.3425    8.8000   -4.5271 C.3         1 H52      -0.0321
     10 C26        17.7751    8.8518   -3.9408 C.3         1 H52       0.0045
     11 C27        18.0273   10.0133   -2.9472 C.3         1 H52       0.0350
     12 C5         19.6118    9.7209    0.1315 C.ar        1 H52       0.1228
     13 C10        19.8780   10.7213    1.1436 C.ar        1 H52       0.0294
     14 C4         18.9841   11.1815    2.1755 C.ar        1 H52      -0.0110
     15 CM         17.6754   10.5651    2.5190 C.3         1 H52      -0.0231
     16 C9         21.1975   11.3048    1.1510 C.ar        1 H52       0.0043
     17 C8         22.2130   10.8651    0.2778 C.ar        1 H52      -0.0481
     18 C7         21.9641    9.8303   -0.6146 C.ar        1 H52      -0.0552
     19 C6         20.6818    9.2847   -0.6949 C.ar        1 H52      -0.0302
     20 C1         21.5312   12.3432    2.0418 C.ar        1 H52       0.0104
     21 N2         20.6281   12.7805    2.9368 N.ar        1 H52      -0.3085
     22 C3         19.4018   12.2320    3.0360 C.ar        1 H52       0.0074
     23 H1         15.4251    9.8219   -0.7857 H           1 H52       0.0564
     24 H2         14.9090   12.2059   -0.9938 H           1 H52       0.0250
     25 H3         16.3760   12.4880   -1.9562 H           1 H52       0.0250
     26 H4         16.5087   12.0121   -0.2584 H           1 H52       0.0250
     27 H5         15.1866   10.9700   -3.5703 H           1 H52       0.0832
     28 H6         13.9950   10.1915   -2.5469 H           1 H52       0.0832
     29 H7         14.3861    8.6048   -3.9884 H           1 H52       0.2014
     30 H8         15.4405    8.1368   -2.8030 H           1 H52       0.2014
     31 H9         16.2135    9.6108   -5.2520 H           1 H52       0.0814
     32 H10        16.2365    7.8609   -5.0767 H           1 H52       0.0814
     33 H11        18.4784    8.9567   -4.7693 H           1 H52       0.0333
     34 H12        17.9899    7.8992   -3.4567 H           1 H52       0.0333
     35 H13        19.0971   10.0841   -2.7481 H           1 H52       0.0480
     36 H14        17.7635   10.9592   -3.4290 H           1 H52       0.0480
     37 H15        17.2219   10.9771    3.4260 H           1 H52       0.0421
     38 H16        17.8237    9.5042    2.7115 H           1 H52       0.0421
     39 H17        16.9615   10.7212    1.7170 H           1 H52       0.0421
     40 H18        23.1506   11.2820    0.2959 H           1 H52       0.0643
     41 H19        22.7046    9.5043   -1.2428 H           1 H52       0.0642
     42 H20        20.5497    8.5707   -1.4096 H           1 H52       0.0657
     43 H21        22.4565   12.7800    2.0381 H           1 H52       0.0786
     44 H22        18.7947   12.5963    3.7716 H           1 H52       0.0687
@<TRIPOS>BOND
     1     1     2   2
     2     2     3   2
     3     2     4  am
     4     2    12   1
     5     4     5   1
     6     4    11   1
     7     5     6   1
     8     5     7   1
     9     7     8   1
    10     8     9   1
    11     9    10   1
    12    10    11   1
    13    12    13  ar
    14    12    19  ar
    15    13    14  ar
    16    13    16  ar
    17    14    15   1
    18    14    22  ar
    19    16    17  ar
    20    16    20  ar
    21    17    18  ar
    22    18    19  ar
    23    20    21  ar
    24    21    22  ar
    25     5    23   1
    26     6    24   1
    27     6    25   1
    28     6    26   1
    29     7    27   1
    30     7    28   1
    31     8    29   1
    32     8    30   1
    33     9    31   1
    34     9    32   1
    35    10    33   1
    36    10    34   1
    37    11    35   1
    38    11    36   1
    39    15    37   1
    40    15    38   1
    41    15    39   1
    42    17    40   1
    43    18    41   1
    44    19    42   1
    45    20    43   1
    46    22    44   1
@<TRIPOS>SUBSTRUCTURE
     1  H52      5

