@<TRIPOS>MOLECULE
1q8u_ligand_051
    44    46
SMALL
GAST_HUCK
****
This file was generated by PARSER (from files_GN.cpp)

@<TRIPOS>ATOM
      1 O1         14.1511    7.1556    5.8296 O.2         1 H52      -0.1497
      2 S5         13.8376    7.2936    4.2742 S.o2        1 H52       0.0732
      3 O2         14.1387    5.7502    4.0263 O.2         1 H52      -0.1497
      4 N21        15.1078    8.0775    3.4501 N.am        1 H52      -0.2257
      5 C22        15.5579    7.6105    2.1431 C.3         1 H52       0.0778
      6 C2M        14.7064    8.2886    1.0363 C.3         1 H52      -0.0402
      7 C23        17.0803    7.8249    1.8260 C.3         1 H52      -0.0136
      8 N24        18.0770    7.3361    2.8105 N.4         1 H52       0.2284
      9 C25        17.7535    7.3381    4.2517 C.3         1 H52      -0.0321
     10 C26        17.1397    8.6506    4.8044 C.3         1 H52       0.0045
     11 C27        15.8225    9.1324    4.1277 C.3         1 H52       0.0350
     12 C5         12.1316    7.5147    3.8721 C.ar        1 H52       0.1228
     13 C10        11.1230    8.2307    4.6167 C.ar        1 H52       0.0294
     14 C4         11.3454    9.1678    5.6841 C.ar        1 H52      -0.0110
     15 CM         12.6436    9.8235    5.9930 C.3         1 H52      -0.0231
     16 C9          9.7499    8.0124    4.2446 C.ar        1 H52       0.0043
     17 C8          9.3998    7.2400    3.1180 C.ar        1 H52      -0.0481
     18 C7         10.3965    6.6334    2.3540 C.ar        1 H52      -0.0552
     19 C6         11.7366    6.7675    2.7323 C.ar        1 H52      -0.0302
     20 C1          8.6974    8.5730    4.9991 C.ar        1 H52       0.0104
     21 N2          8.9683    9.3467    6.0652 N.ar        1 H52      -0.3085
     22 C3         10.2342    9.6483    6.4195 C.ar        1 H52       0.0074
     23 H1         15.3914    6.5330    2.0660 H           1 H52       0.0564
     24 H2         14.9660    7.8868    0.0531 H           1 H52       0.0250
     25 H3         14.8718    9.3682    1.0324 H           1 H52       0.0250
     26 H4         13.6434    8.1086    1.2019 H           1 H52       0.0250
     27 H5         17.2792    8.8890    1.6835 H           1 H52       0.0832
     28 H6         17.3191    7.3362    0.8791 H           1 H52       0.0832
     29 H7         18.9110    7.9194    2.6957 H           1 H52       0.2014
     30 H8         18.3399    6.3765    2.5717 H           1 H52       0.2014
     31 H9         18.6872    7.1441    4.7871 H           1 H52       0.0814
     32 H10        17.0850    6.5012    4.4607 H           1 H52       0.0814
     33 H11        17.8859    9.4466    4.7285 H           1 H52       0.0333
     34 H12        16.9449    8.4921    5.8703 H           1 H52       0.0333
     35 H13        15.2102    9.6092    4.8951 H           1 H52       0.0480
     36 H14        16.0431    9.9269    3.4088 H           1 H52       0.0480
     37 H15        12.5275   10.7093    6.6217 H           1 H52       0.0421
     38 H16        13.1081   10.1568    5.0619 H           1 H52       0.0421
     39 H17        13.2923    9.1437    6.5442 H           1 H52       0.0421
     40 H18         8.4209    7.1212    2.8388 H           1 H52       0.0643
     41 H19        10.1410    6.0691    1.5375 H           1 H52       0.0642
     42 H20        12.4246    6.2787    2.1572 H           1 H52       0.0657
     43 H21         7.7162    8.4079    4.7637 H           1 H52       0.0786
     44 H22        10.3561   10.2783    7.2148 H           1 H52       0.0687
@<TRIPOS>BOND
     1     1     2   2
     2     2     3   2
     3     2     4  am
     4     2    12   1
     5     4     5   1
     6     4    11   1
     7     5     6   1
     8     5     7   1
     9     7     8   1
    10     8     9   1
    11     9    10   1
    12    10    11   1
    13    12    13  ar
    14    12    19  ar
    15    13    14  ar
    16    13    16  ar
    17    14    15   1
    18    14    22  ar
    19    16    17  ar
    20    16    20  ar
    21    17    18  ar
    22    18    19  ar
    23    20    21  ar
    24    21    22  ar
    25     5    23   1
    26     6    24   1
    27     6    25   1
    28     6    26   1
    29     7    27   1
    30     7    28   1
    31     8    29   1
    32     8    30   1
    33     9    31   1
    34     9    32   1
    35    10    33   1
    36    10    34   1
    37    11    35   1
    38    11    36   1
    39    15    37   1
    40    15    38   1
    41    15    39   1
    42    17    40   1
    43    18    41   1
    44    19    42   1
    45    20    43   1
    46    22    44   1
@<TRIPOS>SUBSTRUCTURE
     1  H52      5

