@<TRIPOS>MOLECULE
1q8u_ligand_081
    44    46
SMALL
GAST_HUCK
****
This file was generated by PARSER (from files_GN.cpp)

@<TRIPOS>ATOM
      1 O1         15.8225    7.0149    5.8990 O.2         1 H52      -0.1497
      2 S5         15.8050    8.3393    5.0231 S.o2        1 H52       0.0732
      3 O2         14.2456    8.5857    4.8147 O.2         1 H52      -0.1497
      4 N21        16.4862    8.1066    3.4784 N.am        1 H52      -0.2257
      5 C22        16.2802    6.8830    2.6987 C.3         1 H52       0.0778
      6 C2M        16.2572    5.5351    3.4820 C.3         1 H52      -0.0402
      7 C23        15.0371    6.9414    1.7504 C.3         1 H52      -0.0136
      8 N24        14.7386    8.1918    1.0178 N.4         1 H52       0.2284
      9 C25        15.8569    9.0560    0.5968 C.3         1 H52      -0.0321
     10 C26        16.3282    9.9638    1.7583 C.3         1 H52       0.0045
     11 C27        17.1461    9.2320    2.8482 C.3         1 H52       0.0350
     12 C5         16.4696    9.5110    6.1680 C.ar        1 H52       0.1228
     13 C10        17.5954    9.2870    7.0400 C.ar        1 H52       0.0294
     14 C4         18.6699    8.3541    6.8383 C.ar        1 H52      -0.0110
     15 CM         19.0410    7.7135    5.5427 C.3         1 H52      -0.0231
     16 C9         17.6488   10.0619    8.2470 C.ar        1 H52       0.0043
     17 C8         16.7528   11.1191    8.4865 C.ar        1 H52      -0.0481
     18 C7         15.7729   11.4255    7.5440 C.ar        1 H52      -0.0552
     19 C6         15.6197   10.6156    6.4135 C.ar        1 H52      -0.0302
     20 C1         18.6076    9.7704    9.2394 C.ar        1 H52       0.0104
     21 N2         19.5190    8.8008    9.0423 N.ar        1 H52      -0.3085
     22 C3         19.5794    8.1037    7.8940 C.ar        1 H52       0.0074
     23 H1         17.1581    6.7789    2.0463 H           1 H52       0.0564
     24 H2         16.3402    4.6913    2.7958 H           1 H52       0.0250
     25 H3         15.3235    5.4180    4.0323 H           1 H52       0.0250
     26 H4         17.0915    5.4774    4.1782 H           1 H52       0.0250
     27 H5         14.1382    6.7114    2.3284 H           1 H52       0.0832
     28 H6         15.1454    6.1485    1.0008 H           1 H52       0.0832
     29 H7         14.1194    8.7546    1.6033 H           1 H52       0.2014
     30 H8         14.2195    7.9364    0.1734 H           1 H52       0.2014
     31 H9         15.4792    9.6939   -0.2062 H           1 H52       0.0814
     32 H10        16.6853    8.4712    0.1893 H           1 H52       0.0814
     33 H11        15.4609   10.4491    2.2148 H           1 H52       0.0333
     34 H12        16.9572   10.7558    1.3348 H           1 H52       0.0333
     35 H13        18.0773    8.8829    2.3930 H           1 H52       0.0480
     36 H14        17.4451    9.9794    3.5846 H           1 H52       0.0480
     37 H15        20.1335    7.6691    5.4127 H           1 H52       0.0421
     38 H16        18.6701    8.2935    4.6980 H           1 H52       0.0421
     39 H17        18.6538    6.6918    5.4947 H           1 H52       0.0421
     40 H18        16.8154   11.6783    9.3401 H           1 H52       0.0643
     41 H19        15.1323   12.1980    7.7202 H           1 H52       0.0642
     42 H20        14.8300   10.8169    5.8009 H           1 H52       0.0657
     43 H21        18.6364   10.2865   10.1264 H           1 H52       0.0786
     44 H22        20.3326    7.4247    7.7957 H           1 H52       0.0687
@<TRIPOS>BOND
     1     1     2   2
     2     2     3   2
     3     2     4  am
     4     2    12   1
     5     4     5   1
     6     4    11   1
     7     5     6   1
     8     5     7   1
     9     7     8   1
    10     8     9   1
    11     9    10   1
    12    10    11   1
    13    12    13  ar
    14    12    19  ar
    15    13    14  ar
    16    13    16  ar
    17    14    15   1
    18    14    22  ar
    19    16    17  ar
    20    16    20  ar
    21    17    18  ar
    22    18    19  ar
    23    20    21  ar
    24    21    22  ar
    25     5    23   1
    26     6    24   1
    27     6    25   1
    28     6    26   1
    29     7    27   1
    30     7    28   1
    31     8    29   1
    32     8    30   1
    33     9    31   1
    34     9    32   1
    35    10    33   1
    36    10    34   1
    37    11    35   1
    38    11    36   1
    39    15    37   1
    40    15    38   1
    41    15    39   1
    42    17    40   1
    43    18    41   1
    44    19    42   1
    45    20    43   1
    46    22    44   1
@<TRIPOS>SUBSTRUCTURE
     1  H52      5

