@<TRIPOS>MOLECULE
1q8u_ligand_037
    44    46
SMALL
GAST_HUCK
****
This file was generated by PARSER (from files_GN.cpp)

@<TRIPOS>ATOM
      1 O1         15.4592   10.4795   -2.0225 O.2         1 H52      -0.1497
      2 S5         15.9391   10.8512   -0.5474 S.o2        1 H52       0.0732
      3 O2         16.8789   12.1334   -0.6600 O.2         1 H52      -0.1497
      4 N21        17.0203    9.6757    0.0440 N.am        1 H52      -0.2257
      5 C22        17.6596    9.9119    1.3314 C.3         1 H52       0.0778
      6 C2M        17.6258    8.6558    2.2517 C.3         1 H52      -0.0402
      7 C23        19.0955   10.5073    1.1867 C.3         1 H52      -0.0136
      8 N24        20.0786    9.5660    0.6103 N.4         1 H52       0.2284
      9 C25        20.1473    9.4072   -0.8610 C.3         1 H52      -0.0321
     10 C26        18.8155    9.3706   -1.6610 C.3         1 H52       0.0045
     11 C27        17.6095    8.7534   -0.9006 C.3         1 H52       0.0350
     12 C5         14.5233   11.2205    0.4219 C.ar        1 H52       0.1228
     13 C10        13.8731   12.5026    0.5346 C.ar        1 H52       0.0294
     14 C4         13.9257   13.5859   -0.4159 C.ar        1 H52      -0.0110
     15 CM         14.4005   13.4940   -1.8298 C.3         1 H52      -0.0231
     16 C9         13.0683   12.7094    1.7091 C.ar        1 H52       0.0043
     17 C8         12.8102   11.6707    2.6247 C.ar        1 H52      -0.0481
     18 C7         13.3046   10.3851    2.3830 C.ar        1 H52      -0.0552
     19 C6         14.1530   10.1677    1.2896 C.ar        1 H52      -0.0302
     20 C1         12.4930   13.9706    1.9668 C.ar        1 H52       0.0104
     21 N2         12.6452   14.9753    1.0870 N.ar        1 H52      -0.3085
     22 C3         13.3256   14.8239   -0.0676 C.ar        1 H52       0.0074
     23 H1         17.0835   10.6651    1.8804 H           1 H52       0.0564
     24 H2         17.9331    8.9221    3.2645 H           1 H52       0.0250
     25 H3         18.2899    7.8674    1.8969 H           1 H52       0.0250
     26 H4         16.6135    8.2522    2.3002 H           1 H52       0.0250
     27 H5         19.4581   10.7845    2.1789 H           1 H52       0.0832
     28 H6         19.0740   11.4231    0.5955 H           1 H52       0.0832
     29 H7         19.9067    8.6491    1.0213 H           1 H52       0.2014
     30 H8         21.0065    9.8681    0.9170 H           1 H52       0.2014
     31 H9         20.6826    8.4721   -1.0406 H           1 H52       0.0814
     32 H10        20.7736   10.2090   -1.2587 H           1 H52       0.0814
     33 H11        18.9830    8.7961   -2.5763 H           1 H52       0.0333
     34 H12        18.5636   10.3879   -1.9722 H           1 H52       0.0333
     35 H13        16.8591    8.4340   -1.6266 H           1 H52       0.0480
     36 H14        17.9336    7.8386   -0.4047 H           1 H52       0.0480
     37 H15        14.0901   14.3502   -2.4425 H           1 H52       0.0421
     38 H16        13.9798   12.5984   -2.2985 H           1 H52       0.0421
     39 H17        15.4867   13.4807   -1.8857 H           1 H52       0.0421
     40 H18        12.2361   11.8275    3.4591 H           1 H52       0.0643
     41 H19        13.0846    9.6233    3.0261 H           1 H52       0.0642
     42 H20        14.5386    9.2265    1.1730 H           1 H52       0.0657
     43 H21        11.9410   14.1466    2.8103 H           1 H52       0.0786
     44 H22        13.3617   15.6292   -0.6947 H           1 H52       0.0687
@<TRIPOS>BOND
     1     1     2   2
     2     2     3   2
     3     2     4  am
     4     2    12   1
     5     4     5   1
     6     4    11   1
     7     5     6   1
     8     5     7   1
     9     7     8   1
    10     8     9   1
    11     9    10   1
    12    10    11   1
    13    12    13  ar
    14    12    19  ar
    15    13    14  ar
    16    13    16  ar
    17    14    15   1
    18    14    22  ar
    19    16    17  ar
    20    16    20  ar
    21    17    18  ar
    22    18    19  ar
    23    20    21  ar
    24    21    22  ar
    25     5    23   1
    26     6    24   1
    27     6    25   1
    28     6    26   1
    29     7    27   1
    30     7    28   1
    31     8    29   1
    32     8    30   1
    33     9    31   1
    34     9    32   1
    35    10    33   1
    36    10    34   1
    37    11    35   1
    38    11    36   1
    39    15    37   1
    40    15    38   1
    41    15    39   1
    42    17    40   1
    43    18    41   1
    44    19    42   1
    45    20    43   1
    46    22    44   1
@<TRIPOS>SUBSTRUCTURE
     1  H52      5

