@<TRIPOS>MOLECULE
1q8u_ligand_069
    44    46
SMALL
GAST_HUCK
****
This file was generated by PARSER (from files_GN.cpp)

@<TRIPOS>ATOM
      1 O1         11.6961   12.9432   -0.1564 O.2         1 H52      -0.1497
      2 S5         12.4504   12.0533    0.9277 S.o2        1 H52       0.0732
      3 O2         12.5149   13.1753    2.0541 O.2         1 H52      -0.1497
      4 N21        14.0263   11.7463    0.3654 N.am        1 H52      -0.2257
      5 C22        14.4498   12.2557   -0.9260 C.3         1 H52       0.0778
      6 C2M        14.8940   13.7376   -0.7774 C.3         1 H52      -0.0402
      7 C23        15.5432   11.4286   -1.6699 C.3         1 H52      -0.0136
      8 N24        15.3411    9.9601   -1.6162 N.4         1 H52       0.2284
      9 C25        15.8813    9.2713   -0.4244 C.3         1 H52      -0.0321
     10 C26        15.0740    9.5392    0.8677 C.3         1 H52       0.0045
     11 C27        14.9372   11.0388    1.2376 C.3         1 H52       0.0350
     12 C5         11.5531   10.5425    1.0656 C.ar        1 H52       0.1228
     13 C10        11.7030    9.5574    2.1042 C.ar        1 H52       0.0294
     14 C4         12.1986    9.7828    3.4327 C.ar        1 H52      -0.0110
     15 CM         12.2482   11.0969    4.1201 C.3         1 H52      -0.0231
     16 C9         11.3511    8.2034    1.7766 C.ar        1 H52       0.0043
     17 C8         10.7124    7.8778    0.5604 C.ar        1 H52      -0.0481
     18 C7         10.4650    8.8740   -0.3853 C.ar        1 H52      -0.0552
     19 C6         10.9140   10.1757   -0.1474 C.ar        1 H52      -0.0302
     20 C1         11.6675    7.1484    2.6622 C.ar        1 H52       0.0104
     21 N2         12.2641    7.4103    3.8405 N.ar        1 H52      -0.3085
     22 C3         12.5257    8.6679    4.2448 C.ar        1 H52       0.0074
     23 H1         13.5903   12.2384   -1.6017 H           1 H52       0.0564
     24 H2         15.1394   14.1651   -1.7521 H           1 H52       0.0250
     25 H3         15.7728   13.8082   -0.1339 H           1 H52       0.0250
     26 H4         14.0976   14.3379   -0.3345 H           1 H52       0.0250
     27 H5         16.5406   11.6826   -1.2970 H           1 H52       0.0832
     28 H6         15.5258   11.7104   -2.7270 H           1 H52       0.0832
     29 H7         15.8104    9.5619   -2.4336 H           1 H52       0.2014
     30 H8         14.3467    9.7344   -1.6876 H           1 H52       0.2014
     31 H9         16.9306    9.5407   -0.2758 H           1 H52       0.0814
     32 H10        15.8501    8.1991   -0.6304 H           1 H52       0.0814
     33 H11        15.5777    9.0215    1.6886 H           1 H52       0.0333
     34 H12        14.0835    9.0944    0.7609 H           1 H52       0.0333
     35 H13        14.6042   11.0961    2.2756 H           1 H52       0.0480
     36 H14        15.9239   11.5053    1.2152 H           1 H52       0.0480
     37 H15        12.1644   10.9995    5.2071 H           1 H52       0.0421
     38 H16        11.4113   11.7199    3.8068 H           1 H52       0.0421
     39 H17        13.1953   11.5875    3.9161 H           1 H52       0.0421
     40 H18        10.4298    6.9153    0.3485 H           1 H52       0.0643
     41 H19        10.0180    8.6364   -1.2766 H           1 H52       0.0642
     42 H20        10.8133   10.8374   -0.9191 H           1 H52       0.0657
     43 H21        11.4718    6.1716    2.4262 H           1 H52       0.0786
     44 H22        12.9310    8.7887    5.1759 H           1 H52       0.0687
@<TRIPOS>BOND
     1     1     2   2
     2     2     3   2
     3     2     4  am
     4     2    12   1
     5     4     5   1
     6     4    11   1
     7     5     6   1
     8     5     7   1
     9     7     8   1
    10     8     9   1
    11     9    10   1
    12    10    11   1
    13    12    13  ar
    14    12    19  ar
    15    13    14  ar
    16    13    16  ar
    17    14    15   1
    18    14    22  ar
    19    16    17  ar
    20    16    20  ar
    21    17    18  ar
    22    18    19  ar
    23    20    21  ar
    24    21    22  ar
    25     5    23   1
    26     6    24   1
    27     6    25   1
    28     6    26   1
    29     7    27   1
    30     7    28   1
    31     8    29   1
    32     8    30   1
    33     9    31   1
    34     9    32   1
    35    10    33   1
    36    10    34   1
    37    11    35   1
    38    11    36   1
    39    15    37   1
    40    15    38   1
    41    15    39   1
    42    17    40   1
    43    18    41   1
    44    19    42   1
    45    20    43   1
    46    22    44   1
@<TRIPOS>SUBSTRUCTURE
     1  H52      5

