@<TRIPOS>MOLECULE
1q8u_ligand_070
    44    46
SMALL
GAST_HUCK
****
This file was generated by PARSER (from files_GN.cpp)

@<TRIPOS>ATOM
      1 O1          6.5663   11.4564    3.1287 O.2         1 H52      -0.1497
      2 S5          7.4458   10.1510    2.8981 S.o2        1 H52       0.0732
      3 O2          6.5862    9.3812    1.8050 O.2         1 H52      -0.1497
      4 N21         7.3900    9.1488    4.2754 N.am        1 H52      -0.2257
      5 C22         8.0473    7.8456    4.2880 C.3         1 H52       0.0778
      6 C2M         7.9591    7.0152    2.9741 C.3         1 H52      -0.0402
      7 C23         9.5186    7.9102    4.7900 C.3         1 H52      -0.0136
      8 N24         9.8237    8.8462    5.8969 N.4         1 H52       0.2284
      9 C25         8.8278    9.0406    6.9729 C.3         1 H52      -0.0321
     10 C26         7.7474   10.0810    6.5908 C.3         1 H52       0.0045
     11 C27         6.7564    9.6123    5.4946 C.3         1 H52       0.0350
     12 C5          9.0554   10.7291    2.4871 C.ar        1 H52       0.1228
     13 C10         9.7797   10.4419    1.2871 C.ar        1 H52       0.0294
     14 C4          9.2076   10.1509    0.0090 C.ar        1 H52      -0.0110
     15 CM          7.8647   10.5911   -0.4523 C.3         1 H52      -0.0231
     16 C9         11.2125   10.4643    1.3697 C.ar        1 H52       0.0043
     17 C8         11.8699   10.9893    2.5025 C.ar        1 H52      -0.0481
     18 C7         11.1240   11.4809    3.5761 C.ar        1 H52      -0.0552
     19 C6          9.7330   11.3305    3.5692 C.ar        1 H52      -0.0302
     20 C1         11.9832    9.9656    0.2998 C.ar        1 H52       0.0104
     21 N2         11.3775    9.5375   -0.8276 N.ar        1 H52      -0.3085
     22 C3         10.0405    9.6116   -0.9991 C.ar        1 H52       0.0074
     23 H1          7.5184    7.2237    5.0166 H           1 H52       0.0564
     24 H2          8.3551    6.0098    3.1270 H           1 H52       0.0250
     25 H3          8.5288    7.4857    2.1717 H           1 H52       0.0250
     26 H4          6.9207    6.9191    2.6551 H           1 H52       0.0250
     27 H5         10.1783    8.1790    3.9632 H           1 H52       0.0832
     28 H6          9.8145    6.9115    5.1247 H           1 H52       0.0832
     29 H7         10.0429    9.7590    5.4983 H           1 H52       0.2014
     30 H8         10.6662    8.4816    6.3406 H           1 H52       0.2014
     31 H9          9.3706    9.4202    7.8407 H           1 H52       0.0814
     32 H10         8.3758    8.0900    7.2588 H           1 H52       0.0814
     33 H11         8.2327   11.0006    6.2811 H           1 H52       0.0333
     34 H12         7.1756   10.3340    7.4849 H           1 H52       0.0333
     35 H13         6.1446    8.8089    5.9133 H           1 H52       0.0480
     36 H14         6.0573   10.4278    5.3037 H           1 H52       0.0480
     37 H15         7.9576   11.1594   -1.3812 H           1 H52       0.0421
     38 H16         7.3780   11.2551    0.2591 H           1 H52       0.0421
     39 H17         7.2313    9.7242   -0.6474 H           1 H52       0.0421
     40 H18        12.8913   11.0475    2.5423 H           1 H52       0.0643
     41 H19        11.5948   11.8923    4.3851 H           1 H52       0.0642
     42 H20         9.2270   11.6363    4.3926 H           1 H52       0.0657
     43 H21        13.0040    9.9198    0.3526 H           1 H52       0.0786
     44 H22         9.6601    9.3404   -1.9105 H           1 H52       0.0687
@<TRIPOS>BOND
     1     1     2   2
     2     2     3   2
     3     2     4  am
     4     2    12   1
     5     4     5   1
     6     4    11   1
     7     5     6   1
     8     5     7   1
     9     7     8   1
    10     8     9   1
    11     9    10   1
    12    10    11   1
    13    12    13  ar
    14    12    19  ar
    15    13    14  ar
    16    13    16  ar
    17    14    15   1
    18    14    22  ar
    19    16    17  ar
    20    16    20  ar
    21    17    18  ar
    22    18    19  ar
    23    20    21  ar
    24    21    22  ar
    25     5    23   1
    26     6    24   1
    27     6    25   1
    28     6    26   1
    29     7    27   1
    30     7    28   1
    31     8    29   1
    32     8    30   1
    33     9    31   1
    34     9    32   1
    35    10    33   1
    36    10    34   1
    37    11    35   1
    38    11    36   1
    39    15    37   1
    40    15    38   1
    41    15    39   1
    42    17    40   1
    43    18    41   1
    44    19    42   1
    45    20    43   1
    46    22    44   1
@<TRIPOS>SUBSTRUCTURE
     1  H52      5

