@<TRIPOS>MOLECULE
1q8u_ligand_033
    44    46
SMALL
GAST_HUCK
****
This file was generated by PARSER (from files_GN.cpp)

@<TRIPOS>ATOM
      1 O1         14.7764    9.8159    0.9813 O.2         1 H52      -0.1497
      2 S5         13.6877   10.9524    0.7313 S.o2        1 H52       0.0732
      3 O2         13.9462   11.8091    2.0478 O.2         1 H52      -0.1497
      4 N21        12.1585   10.1963    0.7819 N.am        1 H52      -0.2257
      5 C22        11.9211    9.1478    1.7676 C.3         1 H52       0.0778
      6 C2M        11.3298    9.7259    3.0854 C.3         1 H52      -0.0402
      7 C23        11.1404    7.9024    1.2409 C.3         1 H52      -0.0136
      8 N24         9.6842    8.0988    1.0834 N.4         1 H52       0.2284
      9 C25         9.2531    8.8591   -0.1033 C.3         1 H52      -0.0321
     10 C26         9.7213   10.3321   -0.0982 C.3         1 H52       0.0045
     11 C27        11.2488   10.5081   -0.3060 C.3         1 H52       0.0350
     12 C5         14.0904   11.6610   -0.8383 C.ar        1 H52       0.1228
     13 C10        13.8557   13.0011   -1.3317 C.ar        1 H52       0.0294
     14 C4         13.3087   14.1267   -0.6040 C.ar        1 H52      -0.0110
     15 CM         12.8806   14.1432    0.8177 C.3         1 H52      -0.0231
     16 C9         14.1667   13.2447   -2.7166 C.ar        1 H52       0.0043
     17 C8         14.6511   12.2332   -3.5647 C.ar        1 H52      -0.0481
     18 C7         14.8610   10.9504   -3.0774 C.ar        1 H52      -0.0552
     19 C6         14.5865   10.6764   -1.7376 C.ar        1 H52      -0.0302
     20 C1         13.9818   14.5187   -3.2922 C.ar        1 H52       0.0104
     21 N2         13.5003   15.5348   -2.5550 N.ar        1 H52      -0.3085
     22 C3         13.1663   15.3779   -1.2644 C.ar        1 H52       0.0074
     23 H1         12.8852    8.7253    2.0662 H           1 H52       0.0564
     24 H2         11.1995    8.9275    3.8229 H           1 H52       0.0250
     25 H3         10.3634   10.2039    2.9139 H           1 H52       0.0250
     26 H4         12.0132   10.4692    3.5084 H           1 H52       0.0250
     27 H5         11.2600    7.0876    1.9628 H           1 H52       0.0832
     28 H6         11.5844    7.5603    0.2998 H           1 H52       0.0832
     29 H7          9.3209    8.5656    1.9143 H           1 H52       0.2014
     30 H8          9.2472    7.1758    1.0212 H           1 H52       0.2014
     31 H9          8.1600    8.8413   -0.1209 H           1 H52       0.0814
     32 H10         9.6010    8.3600   -1.0146 H           1 H52       0.0814
     33 H11         9.4088   10.8247    0.8250 H           1 H52       0.0333
     34 H12         9.2134   10.8359   -0.9270 H           1 H52       0.0333
     35 H13        11.5579    9.9129   -1.1705 H           1 H52       0.0480
     36 H14        11.3713   11.5586   -0.5869 H           1 H52       0.0480
     37 H15        12.3554   15.0615    1.1138 H           1 H52       0.0421
     38 H16        13.7611   14.0823    1.4487 H           1 H52       0.0421
     39 H17        12.1832   13.3345    1.0237 H           1 H52       0.0421
     40 H18        14.8371   12.4140   -4.5533 H           1 H52       0.0643
     41 H19        15.2043   10.2154   -3.6930 H           1 H52       0.0642
     42 H20        14.7351    9.7081   -1.4481 H           1 H52       0.0657
     43 H21        14.2063   14.7059   -4.2731 H           1 H52       0.0786
     44 H22        12.8147   16.2050   -0.7764 H           1 H52       0.0687
@<TRIPOS>BOND
     1     1     2   2
     2     2     3   2
     3     2     4  am
     4     2    12   1
     5     4     5   1
     6     4    11   1
     7     5     6   1
     8     5     7   1
     9     7     8   1
    10     8     9   1
    11     9    10   1
    12    10    11   1
    13    12    13  ar
    14    12    19  ar
    15    13    14  ar
    16    13    16  ar
    17    14    15   1
    18    14    22  ar
    19    16    17  ar
    20    16    20  ar
    21    17    18  ar
    22    18    19  ar
    23    20    21  ar
    24    21    22  ar
    25     5    23   1
    26     6    24   1
    27     6    25   1
    28     6    26   1
    29     7    27   1
    30     7    28   1
    31     8    29   1
    32     8    30   1
    33     9    31   1
    34     9    32   1
    35    10    33   1
    36    10    34   1
    37    11    35   1
    38    11    36   1
    39    15    37   1
    40    15    38   1
    41    15    39   1
    42    17    40   1
    43    18    41   1
    44    19    42   1
    45    20    43   1
    46    22    44   1
@<TRIPOS>SUBSTRUCTURE
     1  H52      5

