@<TRIPOS>MOLECULE
1q8u_ligand_025
    44    46
SMALL
GAST_HUCK
****
This file was generated by PARSER (from files_GN.cpp)

@<TRIPOS>ATOM
      1 O1         10.9854   10.9670    1.7436 O.2         1 H52      -0.1497
      2 S5         12.2627   10.0847    2.1067 S.o2        1 H52       0.0732
      3 O2         11.7719    8.9935    1.0575 O.2         1 H52      -0.1497
      4 N21        12.1386    9.3216    3.6227 N.am        1 H52      -0.2257
      5 C22        12.0187   10.1322    4.8245 C.3         1 H52       0.0778
      6 C2M        10.6596    9.9246    5.5473 C.3         1 H52      -0.0402
      7 C23        13.2461    9.9935    5.7807 C.3         1 H52      -0.0136
      8 N24        13.3765    8.6586    6.4124 N.4         1 H52       0.2284
      9 C25        14.0206    7.5666    5.6546 C.3         1 H52      -0.0321
     10 C26        13.7407    7.4832    4.1318 C.3         1 H52       0.0045
     11 C27        12.2986    7.8847    3.7192 C.3         1 H52       0.0350
     12 C5         13.7958   10.6039    1.4203 C.ar        1 H52       0.1228
     13 C10        14.1045   11.9176    0.9238 C.ar        1 H52       0.0294
     14 C4         13.4266   13.1377    1.2725 C.ar        1 H52      -0.0110
     15 CM         12.6642   13.3619    2.5354 C.3         1 H52      -0.0231
     16 C9         15.2013   12.0272    0.0024 C.ar        1 H52       0.0043
     17 C8         16.0579   10.9372   -0.2551 C.ar        1 H52      -0.0481
     18 C7         15.8187    9.7015    0.3478 C.ar        1 H52      -0.0552
     19 C6         14.6926    9.5360    1.1635 C.ar        1 H52      -0.0302
     20 C1         15.4529   13.2477   -0.6614 C.ar        1 H52       0.0104
     21 N2         14.6912   14.3311   -0.4008 N.ar        1 H52      -0.3085
     22 C3         13.7063   14.3032    0.5210 C.ar        1 H52       0.0074
     23 H1         11.9997   11.1857    4.5465 H           1 H52       0.0564
     24 H2         10.5614   10.6372    6.3689 H           1 H52       0.0250
     25 H3         10.5650    8.9211    5.9519 H           1 H52       0.0250
     26 H4          9.8377   10.0938    4.8497 H           1 H52       0.0250
     27 H5         13.1345   10.7150    6.5898 H           1 H52       0.0832
     28 H6         14.1672   10.2475    5.2497 H           1 H52       0.0832
     29 H7         12.4407    8.3492    6.6763 H           1 H52       0.2014
     30 H8         13.9166    8.7549    7.2768 H           1 H52       0.2014
     31 H9         13.6913    6.6290    6.1216 H           1 H52       0.0814
     32 H10        15.1019    7.6373    5.8069 H           1 H52       0.0814
     33 H11        13.9235    6.4516    3.8112 H           1 H52       0.0333
     34 H12        14.4591    8.1216    3.6063 H           1 H52       0.0333
     35 H13        12.0777    7.3884    2.7708 H           1 H52       0.0480
     36 H14        11.5888    7.4700    4.4394 H           1 H52       0.0480
     37 H15        12.7628   14.3959    2.8903 H           1 H52       0.0421
     38 H16        13.0647   12.7156    3.3224 H           1 H52       0.0421
     39 H17        11.5989   13.1839    2.3923 H           1 H52       0.0421
     40 H18        16.8719   11.0355   -0.8714 H           1 H52       0.0643
     41 H19        16.4377    8.9069    0.1583 H           1 H52       0.0642
     42 H20        14.5145    8.5942    1.5279 H           1 H52       0.0657
     43 H21        16.2069   13.3383   -1.3502 H           1 H52       0.0786
     44 H22        13.2150   15.1788    0.7083 H           1 H52       0.0687
@<TRIPOS>BOND
     1     1     2   2
     2     2     3   2
     3     2     4  am
     4     2    12   1
     5     4     5   1
     6     4    11   1
     7     5     6   1
     8     5     7   1
     9     7     8   1
    10     8     9   1
    11     9    10   1
    12    10    11   1
    13    12    13  ar
    14    12    19  ar
    15    13    14  ar
    16    13    16  ar
    17    14    15   1
    18    14    22  ar
    19    16    17  ar
    20    16    20  ar
    21    17    18  ar
    22    18    19  ar
    23    20    21  ar
    24    21    22  ar
    25     5    23   1
    26     6    24   1
    27     6    25   1
    28     6    26   1
    29     7    27   1
    30     7    28   1
    31     8    29   1
    32     8    30   1
    33     9    31   1
    34     9    32   1
    35    10    33   1
    36    10    34   1
    37    11    35   1
    38    11    36   1
    39    15    37   1
    40    15    38   1
    41    15    39   1
    42    17    40   1
    43    18    41   1
    44    19    42   1
    45    20    43   1
    46    22    44   1
@<TRIPOS>SUBSTRUCTURE
     1  H52      5

