@<TRIPOS>MOLECULE
1q8u_ligand_011
    44    46
SMALL
GAST_HUCK
****
This file was generated by PARSER (from files_GN.cpp)

@<TRIPOS>ATOM
      1 O1         13.8536    7.6251    3.0170 O.2         1 H52      -0.1497
      2 S5         13.3063    9.1126    3.1639 S.o2        1 H52       0.0732
      3 O2         13.7051    9.4493    4.6666 O.2         1 H52      -0.1497
      4 N21        11.6260    8.9139    3.0009 N.am        1 H52      -0.2257
      5 C22        10.8670    8.2962    4.0855 C.3         1 H52       0.0778
      6 C2M        10.4370    9.3651    5.1299 C.3         1 H52      -0.0402
      7 C23         9.6044    7.4820    3.6450 C.3         1 H52      -0.0136
      8 N24         9.8086    6.3892    2.6675 N.4         1 H52       0.2284
      9 C25        10.7941    6.5493    1.5800 C.3         1 H52      -0.0321
     10 C26        10.8138    7.9111    0.8372 C.3         1 H52       0.0045
     11 C27        11.0214    9.1778    1.7145 C.3         1 H52       0.0350
     12 C5         14.2012   10.1982    2.0911 C.ar        1 H52       0.1228
     13 C10        13.8371   11.5327    1.6774 C.ar        1 H52       0.0294
     14 C4         12.8179   12.3753    2.2541 C.ar        1 H52      -0.0110
     15 CM         12.0848   12.1186    3.5221 C.3         1 H52      -0.0231
     16 C9         14.5797   12.0983    0.5797 C.ar        1 H52       0.0043
     17 C8         15.6933   11.4426    0.0148 C.ar        1 H52      -0.0481
     18 C7         16.0991   10.2094    0.5153 C.ar        1 H52      -0.0552
     19 C6         15.3570    9.5967    1.5260 C.ar        1 H52      -0.0302
     20 C1         14.2229   13.3499    0.0368 C.ar        1 H52       0.0104
     21 N2         13.2077   14.0549    0.5691 N.ar        1 H52      -0.3085
     22 C3         12.5198   13.6185    1.6411 C.ar        1 H52       0.0074
     23 H1         11.5098    7.5747    4.6034 H           1 H52       0.0564
     24 H2          9.9257    8.8952    5.9728 H           1 H52       0.0250
     25 H3          9.7560   10.0897    4.6780 H           1 H52       0.0250
     26 H4         11.3020    9.8982    5.5237 H           1 H52       0.0250
     27 H5          8.8535    8.1564    3.2296 H           1 H52       0.0832
     28 H6          9.1561    7.0210    4.5291 H           1 H52       0.0832
     29 H7          8.9092    6.2010    2.2234 H           1 H52       0.2014
     30 H8         10.0751    5.5533    3.1932 H           1 H52       0.2014
     31 H9         10.5831    5.7695    0.8456 H           1 H52       0.0814
     32 H10        11.7810    6.3416    1.9926 H           1 H52       0.0814
     33 H11         9.8834    8.0145    0.2717 H           1 H52       0.0333
     34 H12        11.6288    7.8709    0.1107 H           1 H52       0.0333
     35 H13        11.6038    9.8967    1.1335 H           1 H52       0.0480
     36 H14        10.0601    9.6688    1.8784 H           1 H52       0.0480
     37 H15        11.5519   12.9918    3.9059 H           1 H52       0.0421
     38 H16        12.7782   11.8199    4.3036 H           1 H52       0.0421
     39 H17        11.3350   11.3557    3.3658 H           1 H52       0.0421
     40 H18        16.2365   11.8673   -0.7420 H           1 H52       0.0643
     41 H19        16.9169    9.7377    0.1231 H           1 H52       0.0642
     42 H20        15.6807    8.6767    1.8199 H           1 H52       0.0657
     43 H21        14.7223   13.7499   -0.7627 H           1 H52       0.0786
     44 H22        11.7868   14.2316    2.0055 H           1 H52       0.0687
@<TRIPOS>BOND
     1     1     2   2
     2     2     3   2
     3     2     4  am
     4     2    12   1
     5     4     5   1
     6     4    11   1
     7     5     6   1
     8     5     7   1
     9     7     8   1
    10     8     9   1
    11     9    10   1
    12    10    11   1
    13    12    13  ar
    14    12    19  ar
    15    13    14  ar
    16    13    16  ar
    17    14    15   1
    18    14    22  ar
    19    16    17  ar
    20    16    20  ar
    21    17    18  ar
    22    18    19  ar
    23    20    21  ar
    24    21    22  ar
    25     5    23   1
    26     6    24   1
    27     6    25   1
    28     6    26   1
    29     7    27   1
    30     7    28   1
    31     8    29   1
    32     8    30   1
    33     9    31   1
    34     9    32   1
    35    10    33   1
    36    10    34   1
    37    11    35   1
    38    11    36   1
    39    15    37   1
    40    15    38   1
    41    15    39   1
    42    17    40   1
    43    18    41   1
    44    19    42   1
    45    20    43   1
    46    22    44   1
@<TRIPOS>SUBSTRUCTURE
     1  H52      5

