@<TRIPOS>MOLECULE
1q8u_ligand_077
    44    46
SMALL
GAST_HUCK
****
This file was generated by PARSER (from files_GN.cpp)

@<TRIPOS>ATOM
      1 O1         15.0354    5.8765    0.1596 O.2         1 H52      -0.1497
      2 S5         15.1293    7.3850    0.6539 S.o2        1 H52       0.0732
      3 O2         13.6232    7.8661    0.4687 O.2         1 H52      -0.1497
      4 N21        16.0145    8.2833   -0.4929 N.am        1 H52      -0.2257
      5 C22        15.6919    9.6911   -0.7019 C.3         1 H52       0.0778
      6 C2M        16.4230   10.5675    0.3492 C.3         1 H52      -0.0402
      7 C23        15.9234   10.2308   -2.1472 C.3         1 H52      -0.0136
      8 N24        15.4079    9.3316   -3.2093 N.4         1 H52       0.2284
      9 C25        16.3232    8.2570   -3.6571 C.3         1 H52      -0.0321
     10 C26        16.5420    7.1310   -2.6198 C.3         1 H52       0.0045
     11 C27        17.0598    7.6297   -1.2485 C.3         1 H52       0.0350
     12 C5         15.8014    7.3992    2.2866 C.ar        1 H52       0.1228
     13 C10        15.1471    7.8643    3.4806 C.ar        1 H52       0.0294
     14 C4         13.7316    7.9320    3.7013 C.ar        1 H52      -0.0110
     15 CM         12.7060    7.0943    3.0246 C.3         1 H52      -0.0231
     16 C9         15.9896    8.2953    4.5617 C.ar        1 H52       0.0043
     17 C8         17.3766    8.0410    4.5586 C.ar        1 H52      -0.0481
     18 C7         17.9616    7.3888    3.4685 C.ar        1 H52      -0.0552
     19 C6         17.1867    7.0990    2.3407 C.ar        1 H52      -0.0302
     20 C1         15.4318    8.9731    5.6659 C.ar        1 H52       0.0104
     21 N2         14.0991    9.1673    5.7357 N.ar        1 H52      -0.3085
     22 C3         13.2515    8.6739    4.8094 C.ar        1 H52       0.0074
     23 H1         14.6230    9.8522   -0.5348 H           1 H52       0.0564
     24 H2         16.1836   11.6220    0.1953 H           1 H52       0.0250
     25 H3         17.5033   10.4347    0.2716 H           1 H52       0.0250
     26 H4         16.1057   10.2927    1.3584 H           1 H52       0.0250
     27 H5         16.9815   10.4490   -2.3083 H           1 H52       0.0832
     28 H6         15.3870   11.1777   -2.2501 H           1 H52       0.0832
     29 H7         15.2197    9.9153   -4.0278 H           1 H52       0.2014
     30 H8         14.5198    8.9149   -2.9120 H           1 H52       0.2014
     31 H9         17.2878    8.6847   -3.9444 H           1 H52       0.0814
     32 H10        15.8878    7.8074   -4.5527 H           1 H52       0.0814
     33 H11        17.2750    6.4308   -3.0314 H           1 H52       0.0333
     34 H12        15.6056    6.5840   -2.4788 H           1 H52       0.0333
     35 H13        17.4474    6.7566   -0.7208 H           1 H52       0.0480
     36 H14        17.9099    8.3052   -1.3843 H           1 H52       0.0480
     37 H15        12.0511    6.6208    3.7651 H           1 H52       0.0421
     38 H16        13.1571    6.2831    2.4588 H           1 H52       0.0421
     39 H17        12.0892    7.7130    2.3700 H           1 H52       0.0421
     40 H18        17.9700    8.3023    5.3512 H           1 H52       0.0643
     41 H19        18.9629    7.1738    3.4751 H           1 H52       0.0642
     42 H20        17.6725    6.6952    1.5401 H           1 H52       0.0657
     43 H21        16.0188    9.3290    6.4215 H           1 H52       0.0786
     44 H22        12.2487    8.7884    4.9715 H           1 H52       0.0687
@<TRIPOS>BOND
     1     1     2   2
     2     2     3   2
     3     2     4  am
     4     2    12   1
     5     4     5   1
     6     4    11   1
     7     5     6   1
     8     5     7   1
     9     7     8   1
    10     8     9   1
    11     9    10   1
    12    10    11   1
    13    12    13  ar
    14    12    19  ar
    15    13    14  ar
    16    13    16  ar
    17    14    15   1
    18    14    22  ar
    19    16    17  ar
    20    16    20  ar
    21    17    18  ar
    22    18    19  ar
    23    20    21  ar
    24    21    22  ar
    25     5    23   1
    26     6    24   1
    27     6    25   1
    28     6    26   1
    29     7    27   1
    30     7    28   1
    31     8    29   1
    32     8    30   1
    33     9    31   1
    34     9    32   1
    35    10    33   1
    36    10    34   1
    37    11    35   1
    38    11    36   1
    39    15    37   1
    40    15    38   1
    41    15    39   1
    42    17    40   1
    43    18    41   1
    44    19    42   1
    45    20    43   1
    46    22    44   1
@<TRIPOS>SUBSTRUCTURE
     1  H52      5

