@<TRIPOS>MOLECULE
1q8u_ligand_016
    44    46
SMALL
GAST_HUCK
****
This file was generated by PARSER (from files_GN.cpp)

@<TRIPOS>ATOM
      1 O1         17.7426    6.8165   -0.0556 O.2         1 H52      -0.1497
      2 S5         17.5384    8.3094   -0.5655 S.o2        1 H52       0.0732
      3 O2         19.0269    8.8348   -0.7518 O.2         1 H52      -0.1497
      4 N21        16.8163    9.0441    0.7885 N.am        1 H52      -0.2257
      5 C22        17.5996    9.1763    2.0088 C.3         1 H52       0.0778
      6 C2M        17.9289   10.6580    2.3213 C.3         1 H52      -0.0402
      7 C23        16.9967    8.4320    3.2392 C.3         1 H52      -0.0136
      8 N24        15.6830    8.9527    3.6789 N.4         1 H52       0.2284
      9 C25        14.4824    8.4024    3.0107 C.3         1 H52      -0.0321
     10 C26        14.5540    8.2397    1.4678 C.3         1 H52       0.0045
     11 C27        15.3978    9.3320    0.7657 C.3         1 H52       0.0350
     12 C5         16.7899    8.2842   -2.1679 C.ar        1 H52       0.1228
     13 C10        16.0701    9.3575   -2.7887 C.ar        1 H52       0.0294
     14 C4         16.1226   10.7492   -2.4299 C.ar        1 H52      -0.0110
     15 CM         17.2113   11.3890   -1.6497 C.3         1 H52      -0.0231
     16 C9         15.1846    9.0085   -3.8648 C.ar        1 H52       0.0043
     17 C8         15.1910    7.7220   -4.4353 C.ar        1 H52      -0.0481
     18 C7         16.0435    6.7366   -3.9307 C.ar        1 H52      -0.0552
     19 C6         16.8122    7.0111   -2.7976 C.ar        1 H52      -0.0302
     20 C1         14.2791    9.9604   -4.3749 C.ar        1 H52       0.0104
     21 N2         14.2524   11.2024   -3.8698 N.ar        1 H52      -0.3085
     22 C3         15.1457   11.6261   -2.9480 C.ar        1 H52       0.0074
     23 H1         18.5752    8.7018    1.8587 H           1 H52       0.0564
     24 H2         18.5614   10.7344    3.2100 H           1 H52       0.0250
     25 H3         17.0184   11.2268    2.5018 H           1 H52       0.0250
     26 H4         18.4656   11.1087    1.4844 H           1 H52       0.0250
     27 H5         17.6804    8.5438    4.0841 H           1 H52       0.0832
     28 H6         16.9338    7.3589    3.0304 H           1 H52       0.0832
     29 H7         15.6807    9.9702    3.5669 H           1 H52       0.2014
     30 H8         15.5873    8.7543    4.6763 H           1 H52       0.2014
     31 H9         13.6560    9.0752    3.2552 H           1 H52       0.0814
     32 H10        14.2423    7.4331    3.4565 H           1 H52       0.0814
     33 H11        13.5315    8.2671    1.0787 H           1 H52       0.0333
     34 H12        14.9618    7.2564    1.2205 H           1 H52       0.0333
     35 H13        15.0362    9.4344   -0.2567 H           1 H52       0.0480
     36 H14        15.1958   10.3017    1.2278 H           1 H52       0.0480
     37 H15        17.2896   12.4564   -1.8479 H           1 H52       0.0421
     38 H16        18.1760   10.9631   -1.9025 H           1 H52       0.0421
     39 H17        17.0328   11.2915   -0.5879 H           1 H52       0.0421
     40 H18        14.5784    7.4819   -5.2211 H           1 H52       0.0643
     41 H19        16.0551    5.8041   -4.3530 H           1 H52       0.0642
     42 H20        17.3632    6.2393   -2.4200 H           1 H52       0.0657
     43 H21        13.6035    9.7127   -5.1024 H           1 H52       0.0786
     44 H22        15.0952   12.6059   -2.6647 H           1 H52       0.0687
@<TRIPOS>BOND
     1     1     2   2
     2     2     3   2
     3     2     4  am
     4     2    12   1
     5     4     5   1
     6     4    11   1
     7     5     6   1
     8     5     7   1
     9     7     8   1
    10     8     9   1
    11     9    10   1
    12    10    11   1
    13    12    13  ar
    14    12    19  ar
    15    13    14  ar
    16    13    16  ar
    17    14    15   1
    18    14    22  ar
    19    16    17  ar
    20    16    20  ar
    21    17    18  ar
    22    18    19  ar
    23    20    21  ar
    24    21    22  ar
    25     5    23   1
    26     6    24   1
    27     6    25   1
    28     6    26   1
    29     7    27   1
    30     7    28   1
    31     8    29   1
    32     8    30   1
    33     9    31   1
    34     9    32   1
    35    10    33   1
    36    10    34   1
    37    11    35   1
    38    11    36   1
    39    15    37   1
    40    15    38   1
    41    15    39   1
    42    17    40   1
    43    18    41   1
    44    19    42   1
    45    20    43   1
    46    22    44   1
@<TRIPOS>SUBSTRUCTURE
     1  H52      5

