@<TRIPOS>MOLECULE
1q8u_ligand_067
    44    46
SMALL
GAST_HUCK
****
This file was generated by PARSER (from files_GN.cpp)

@<TRIPOS>ATOM
      1 O1         14.4581   12.4829   -1.7758 O.2         1 H52      -0.1497
      2 S5         15.4857   11.3097   -1.4558 S.o2        1 H52       0.0732
      3 O2         16.6231   12.2830   -0.9249 O.2         1 H52      -0.1497
      4 N21        15.8505   10.6482   -2.9840 N.am        1 H52      -0.2257
      5 C22        14.7747   10.4128   -3.9386 C.3         1 H52       0.0778
      6 C2M        14.6031   11.6175   -4.9055 C.3         1 H52      -0.0402
      7 C23        14.8939    9.0988   -4.7703 C.3         1 H52      -0.0136
      8 N24        15.3269    7.9426   -3.9573 N.4         1 H52       0.2284
      9 C25        16.7931    7.7567   -3.8364 C.3         1 H52      -0.0321
     10 C26        17.5105    8.7957   -2.9426 C.3         1 H52       0.0045
     11 C27        17.2119   10.2750   -3.2926 C.3         1 H52       0.0350
     12 C5         14.7698   10.2283   -0.2544 C.ar        1 H52       0.1228
     13 C10        15.4467    9.1232    0.3654 C.ar        1 H52       0.0294
     14 C4         16.8610    9.0035    0.5876 C.ar        1 H52      -0.0110
     15 CM         17.8137   10.1411    0.6059 C.3         1 H52      -0.0231
     16 C9         14.6363    8.0299    0.8221 C.ar        1 H52       0.0043
     17 C8         13.2340    8.1462    0.9093 C.ar        1 H52      -0.0481
     18 C7         12.6041    9.3199    0.4842 C.ar        1 H52      -0.0552
     19 C6         13.3607   10.3253   -0.1299 C.ar        1 H52      -0.0302
     20 C1         15.2395    6.8076    1.1823 C.ar        1 H52       0.0104
     21 N2         16.5833    6.6916    1.1907 N.ar        1 H52      -0.3085
     22 C3         17.3915    7.7411    0.9412 C.ar        1 H52       0.0074
     23 H1         13.8394   10.3127   -3.3825 H           1 H52       0.0564
     24 H2         13.7677   11.4445   -5.5873 H           1 H52       0.0250
     25 H3         15.5069   11.7637   -5.5022 H           1 H52       0.0250
     26 H4         14.4015   12.5358   -4.3548 H           1 H52       0.0250
     27 H5         15.5586    9.2321   -5.6299 H           1 H52       0.0832
     28 H6         13.9102    8.8556   -5.1752 H           1 H52       0.0832
     29 H7         14.9541    7.1015   -4.4052 H           1 H52       0.2014
     30 H8         14.8993    8.0228   -3.0321 H           1 H52       0.2014
     31 H9         17.2454    7.7630   -4.8335 H           1 H52       0.0814
     32 H10        16.9643    6.7637   -3.4157 H           1 H52       0.0814
     33 H11        18.5880    8.6258   -3.0233 H           1 H52       0.0333
     34 H12        17.2319    8.6037   -1.9194 H           1 H52       0.0333
     35 H13        17.9153   10.9137   -2.7560 H           1 H52       0.0480
     36 H14        17.4208   10.4318   -4.3539 H           1 H52       0.0480
     37 H15        18.7221    9.9150    1.1657 H           1 H52       0.0421
     38 H16        17.3529   10.9987    1.0994 H           1 H52       0.0421
     39 H17        18.1213   10.3996   -0.4034 H           1 H52       0.0421
     40 H18        12.6608    7.3878    1.2878 H           1 H52       0.0643
     41 H19        11.5861    9.4067    0.5507 H           1 H52       0.0642
     42 H20        12.8416   11.1099   -0.5311 H           1 H52       0.0657
     43 H21        14.6825    5.9861    1.4302 H           1 H52       0.0786
     44 H22        18.3985    7.5967    1.0488 H           1 H52       0.0687
@<TRIPOS>BOND
     1     1     2   2
     2     2     3   2
     3     2     4  am
     4     2    12   1
     5     4     5   1
     6     4    11   1
     7     5     6   1
     8     5     7   1
     9     7     8   1
    10     8     9   1
    11     9    10   1
    12    10    11   1
    13    12    13  ar
    14    12    19  ar
    15    13    14  ar
    16    13    16  ar
    17    14    15   1
    18    14    22  ar
    19    16    17  ar
    20    16    20  ar
    21    17    18  ar
    22    18    19  ar
    23    20    21  ar
    24    21    22  ar
    25     5    23   1
    26     6    24   1
    27     6    25   1
    28     6    26   1
    29     7    27   1
    30     7    28   1
    31     8    29   1
    32     8    30   1
    33     9    31   1
    34     9    32   1
    35    10    33   1
    36    10    34   1
    37    11    35   1
    38    11    36   1
    39    15    37   1
    40    15    38   1
    41    15    39   1
    42    17    40   1
    43    18    41   1
    44    19    42   1
    45    20    43   1
    46    22    44   1
@<TRIPOS>SUBSTRUCTURE
     1  H52      5

