@<TRIPOS>MOLECULE
1qi0_ligand_030
    45    46
SMALL
GAST_HUCK
****
This file was generated by PARSER (from files_GN.cpp)

@<TRIPOS>ATOM
      1 C1          1.6667   39.9150   12.3383 C.3         1 CBI       0.1884
      2 C2          1.3780   39.9751   10.8145 C.3         1 CBI       0.1341
      3 C3          1.7764   41.3719   10.2558 C.3         1 CBI       0.1141
      4 C4          1.0955   42.5120   11.0719 C.3         1 CBI       0.1119
      5 C5          1.3398   42.3301   12.5994 C.3         1 CBI       0.1130
      6 C6          0.4962   43.3155   13.4490 C.3         1 CBI       0.0730
      7 O2          2.1125   38.9542   10.1244 O.3         1 CBI      -0.3841
      8 O3          1.4295   41.4726    8.8781 O.3         1 CBI      -0.3864
      9 O4          1.5808   43.7839   10.6219 O.3         1 CBI      -0.3865
     10 O5          0.9846   40.9939   13.0188 O.3         1 CBI      -0.3405
     11 O6          0.9653   43.3548   14.7934 O.3         1 CBI      -0.3924
     12 C1'         1.5463   37.6663   16.9879 C.3         1 CBI       0.1854
     13 C2'         2.7855   38.3888   16.3989 C.3         1 CBI       0.1339
     14 C3'         2.4055   39.0963   15.0644 C.3         1 CBI       0.1144
     15 C4'         1.7095   38.1063   14.0712 C.3         1 CBI       0.1184
     16 C5'         0.5373   37.3697   14.8059 C.3         1 CBI       0.1134
     17 C6'        -0.1796   36.3014   13.9386 C.3         1 CBI       0.0730
     18 O1'         1.8969   36.9614   18.1750 O.3         1 CBI      -0.3649
     19 O2'         3.3198   39.3266   17.3350 O.3         1 CBI      -0.3841
     20 O3'         3.5983   39.6598   14.5081 O.3         1 CBI      -0.3864
     21 O4'         1.1277   38.6948   12.8815 O.3         1 CBI      -0.3401
     22 O5'         0.9916   36.7415   16.0264 O.3         1 CBI      -0.3407
     23 O6'         0.6160   35.8375   12.8467 O.3         1 CBI      -0.3924
     24 H1          2.7540   39.9711   12.4849 H           1 CBI       0.0938
     25 H2          0.3031   39.8130   10.6426 H           1 CBI       0.0671
     26 H3          2.8656   41.4852   10.3308 H           1 CBI       0.0648
     27 H4          0.0190   42.4765   10.8764 H           1 CBI       0.0647
     28 H5          2.3965   42.5162   12.8244 H           1 CBI       0.0647
     29 H6         -0.5539   43.0138   13.4549 H           1 CBI       0.0584
     30 H7          0.5676   44.3246   13.0330 H           1 CBI       0.0584
     31 H8          1.7037   38.1075   10.4167 H           1 CBI       0.2101
     32 H9          0.4526   41.3782    8.8464 H           1 CBI       0.2100
     33 H10         2.5413   43.7803   10.8283 H           1 CBI       0.2100
     34 H11         0.4515   42.6677   15.2775 H           1 CBI       0.2095
     35 H12         0.7947   38.4067   17.2709 H           1 CBI       0.0935
     36 H13         3.5617   37.6463   16.1957 H           1 CBI       0.0671
     37 H14         1.7138   39.9193   15.2724 H           1 CBI       0.0648
     38 H15         2.4509   37.3604   13.7592 H           1 CBI       0.0651
     39 H16        -0.2337   38.1143   15.0599 H           1 CBI       0.0647
     40 H17        -1.0991   36.7220   13.5172 H           1 CBI       0.0584
     41 H18        -0.4593   35.4468   14.5638 H           1 CBI       0.0584
     42 H19         2.0088   36.0264   17.9074 H           1 CBI       0.2126
     43 H20         2.6010   39.9699   17.4958 H           1 CBI       0.2101
     44 H21         3.7792   40.4646   15.0398 H           1 CBI       0.2100
     45 H22         1.1212   35.0748   13.2027 H           1 CBI       0.2095
@<TRIPOS>BOND
     1     1    21   1
     2     1    10   1
     3     1     2   1
     4     2     7   1
     5     2     3   1
     6     3     8   1
     7     3     4   1
     8     4     9   1
     9     4     5   1
    10     5    10   1
    11     5     6   1
    12     6    11   1
    13    21    15   1
    14    15    16   1
    15    15    14   1
    16    14    20   1
    17    14    13   1
    18    13    19   1
    19    13    12   1
    20    12    22   1
    21    12    18   1
    22    22    16   1
    23    16    17   1
    24    17    23   1
    25     1    24   1
    26     2    25   1
    27     3    26   1
    28     4    27   1
    29     5    28   1
    30     6    29   1
    31     6    30   1
    32     7    31   1
    33     8    32   1
    34     9    33   1
    35    11    34   1
    36    12    35   1
    37    13    36   1
    38    14    37   1
    39    15    38   1
    40    16    39   1
    41    17    40   1
    42    17    41   1
    43    18    42   1
    44    19    43   1
    45    20    44   1
    46    23    45   1
@<TRIPOS>SUBSTRUCTURE
     1  CBI      1

