@<TRIPOS>MOLECULE
1qi0_ligand_026
    45    46
SMALL
GAST_HUCK
****
This file was generated by PARSER (from files_GN.cpp)

@<TRIPOS>ATOM
      1 C1          0.5224   37.0926   15.8414 C.3         1 CBI       0.1884
      2 C2          0.4117   35.8673   14.9089 C.3         1 CBI       0.1341
      3 C3         -0.5822   34.8245   15.5008 C.3         1 CBI       0.1141
      4 C4         -0.2011   34.4795   16.9778 C.3         1 CBI       0.1119
      5 C5          0.0207   35.7773   17.8358 C.3         1 CBI       0.1130
      6 C6          0.5454   35.4991   19.2799 C.3         1 CBI       0.0730
      7 O2         -0.0035   36.2996   13.6076 O.3         1 CBI      -0.3841
      8 O3         -0.5857   33.6074   14.7297 O.3         1 CBI      -0.3864
      9 O4         -1.2035   33.6320   17.5525 O.3         1 CBI      -0.3865
     10 O5          0.9205   36.6934   17.1644 O.3         1 CBI      -0.3405
     11 O6          1.7880   36.1286   19.5779 O.3         1 CBI      -0.3924
     12 C1'         1.8637   41.9996   13.9853 C.3         1 CBI       0.1854
     13 C2'         2.7179   41.6026   15.2166 C.3         1 CBI       0.1339
     14 C3'         2.7679   40.0548   15.3660 C.3         1 CBI       0.1144
     15 C4'         1.3481   39.4060   15.3233 C.3         1 CBI       0.1184
     16 C5'         0.5921   39.9339   14.0607 C.3         1 CBI       0.1134
     17 C6'        -0.8903   39.4860   13.9223 C.3         1 CBI       0.0730
     18 O1'         1.6453   43.4070   13.9526 O.3         1 CBI      -0.3649
     19 O2'         4.0224   42.1972   15.1166 O.3         1 CBI      -0.3841
     20 O3'         3.4168   39.6964   16.5814 O.3         1 CBI      -0.3864
     21 O4'         1.5386   37.9639   15.2789 O.3         1 CBI      -0.3401
     22 O5'         0.5735   41.3748   14.0438 O.3         1 CBI      -0.3407
     23 O6'        -1.5441   39.3173   15.1821 O.3         1 CBI      -0.3924
     24 H1         -0.4567   37.5885   15.8883 H           1 CBI       0.0938
     25 H2          1.4046   35.4108   14.8287 H           1 CBI       0.0671
     26 H3         -1.5948   35.2424   15.4773 H           1 CBI       0.0648
     27 H4          0.7292   33.9167   16.9501 H           1 CBI       0.0647
     28 H5         -0.9691   36.2729   17.9347 H           1 CBI       0.0647
     29 H6          0.6675   34.4176   19.4545 H           1 CBI       0.0584
     30 H7         -0.1840   35.8630   20.0083 H           1 CBI       0.0584
     31 H8          0.2273   35.5608   12.9963 H           1 CBI       0.2101
     32 H9         -1.0112   33.8280   13.8725 H           1 CBI       0.2100
     33 H10        -2.0274   34.1585   17.5976 H           1 CBI       0.2100
     34 H11         2.4350   35.7112   18.9718 H           1 CBI       0.2095
     35 H12         2.3752   41.7225   13.0682 H           1 CBI       0.0935
     36 H13         2.2601   42.0218   16.1181 H           1 CBI       0.0671
     37 H14         3.3713   39.6377   14.5364 H           1 CBI       0.0648
     38 H15         0.8273   39.6970   16.2352 H           1 CBI       0.0651
     39 H16         1.1227   39.5675   13.1686 H           1 CBI       0.0647
     40 H17        -0.9486   38.5516   13.3700 H           1 CBI       0.0584
     41 H18        -1.4483   40.2381   13.3501 H           1 CBI       0.0584
     42 H19         0.9225   43.5548   13.3051 H           1 CBI       0.2126
     43 H20         4.4042   41.8483   14.2909 H           1 CBI       0.2101
     44 H21         2.7496   39.9156   17.2861 H           1 CBI       0.2100
     45 H22        -1.4053   40.1637   15.6562 H           1 CBI       0.2095
@<TRIPOS>BOND
     1     1    21   1
     2     1    10   1
     3     1     2   1
     4     2     7   1
     5     2     3   1
     6     3     8   1
     7     3     4   1
     8     4     9   1
     9     4     5   1
    10     5    10   1
    11     5     6   1
    12     6    11   1
    13    21    15   1
    14    15    16   1
    15    15    14   1
    16    14    20   1
    17    14    13   1
    18    13    19   1
    19    13    12   1
    20    12    22   1
    21    12    18   1
    22    22    16   1
    23    16    17   1
    24    17    23   1
    25     1    24   1
    26     2    25   1
    27     3    26   1
    28     4    27   1
    29     5    28   1
    30     6    29   1
    31     6    30   1
    32     7    31   1
    33     8    32   1
    34     9    33   1
    35    11    34   1
    36    12    35   1
    37    13    36   1
    38    14    37   1
    39    15    38   1
    40    16    39   1
    41    17    40   1
    42    17    41   1
    43    18    42   1
    44    19    43   1
    45    20    44   1
    46    23    45   1
@<TRIPOS>SUBSTRUCTURE
     1  CBI      1

