@<TRIPOS>MOLECULE
1qi0_ligand_056
    45    46
SMALL
GAST_HUCK
****
This file was generated by PARSER (from files_GN.cpp)

@<TRIPOS>ATOM
      1 C1          2.2966   40.6010   11.0292 C.3         1 CBI       0.1884
      2 C2          1.5612   40.7841    9.6729 C.3         1 CBI       0.1341
      3 C3          2.1585   41.9726    8.8745 C.3         1 CBI       0.1141
      4 C4          2.2304   43.2562    9.7443 C.3         1 CBI       0.1119
      5 C5          2.9765   42.9655   11.0822 C.3         1 CBI       0.1130
      6 C6          2.9511   44.1654   12.0665 C.3         1 CBI       0.0730
      7 O2          1.6586   39.5923    8.8931 O.3         1 CBI      -0.3841
      8 O3          1.3732   42.2295    7.7105 O.3         1 CBI      -0.3864
      9 O4          2.8998   44.2888    9.0197 O.3         1 CBI      -0.3865
     10 O5          2.3750   41.8454   11.7624 O.3         1 CBI      -0.3405
     11 O6          3.5150   45.3344   11.4786 O.3         1 CBI      -0.3924
     12 C1'        -1.7199   39.2991   14.3447 C.3         1 CBI       0.1854
     13 C2'        -1.4560   40.6914   13.7190 C.3         1 CBI       0.1339
     14 C3'        -0.4760   40.5792   12.5191 C.3         1 CBI       0.1144
     15 C4'         0.8084   39.7763   12.9002 C.3         1 CBI       0.1184
     16 C5'         0.3808   38.4018   13.5065 C.3         1 CBI       0.1134
     17 C6'         1.5724   37.5344   13.9857 C.3         1 CBI       0.0730
     18 O1'        -2.4292   39.4476   15.5705 O.3         1 CBI      -0.3649
     19 O2'        -2.6918   41.2750   13.3047 O.3         1 CBI      -0.3841
     20 O3'        -0.1715   41.8981   12.0687 O.3         1 CBI      -0.3864
     21 O4'         1.6677   39.5246   11.7636 O.3         1 CBI      -0.3401
     22 O5'        -0.4930   38.6049   14.6388 O.3         1 CBI      -0.3407
     23 O6'         1.1037   36.4970   14.8450 O.3         1 CBI      -0.3924
     24 H1          3.3174   40.2671   10.8239 H           1 CBI       0.0938
     25 H2          0.5036   40.9791    9.8581 H           1 CBI       0.0671
     26 H3          3.1682   41.7131    8.5420 H           1 CBI       0.0648
     27 H4          1.2140   43.5958    9.9635 H           1 CBI       0.0647
     28 H5          4.0229   42.7226   10.8673 H           1 CBI       0.0647
     29 H6          3.5329   43.9195   12.9582 H           1 CBI       0.0584
     30 H7          1.9266   44.3846   12.3733 H           1 CBI       0.0584
     31 H8          1.1150   38.9251    9.3639 H           1 CBI       0.2101
     32 H9          1.5161   41.4581    7.1235 H           1 CBI       0.2100
     33 H10         2.7341   44.0994    8.0719 H           1 CBI       0.2100
     34 H11         4.0708   45.7382   12.1791 H           1 CBI       0.2095
     35 H12        -2.3324   38.6913   13.6725 H           1 CBI       0.0935
     36 H13        -1.0091   41.3368   14.4811 H           1 CBI       0.0671
     37 H14        -0.9779   40.0642   11.6941 H           1 CBI       0.0648
     38 H15         1.3623   40.3189   13.6735 H           1 CBI       0.0651
     39 H16        -0.1501   37.8245   12.7419 H           1 CBI       0.0647
     40 H17         2.2945   38.1453   14.5301 H           1 CBI       0.0584
     41 H18         2.0726   37.0731   13.1313 H           1 CBI       0.0584
     42 H19        -1.8473   40.0082   16.1283 H           1 CBI       0.2126
     43 H20        -2.4741   42.2043   13.0762 H           1 CBI       0.2101
     44 H21         0.3489   42.3092   12.7917 H           1 CBI       0.2100
     45 H22         1.5280   35.6726   14.5264 H           1 CBI       0.2095
@<TRIPOS>BOND
     1     1    21   1
     2     1    10   1
     3     1     2   1
     4     2     7   1
     5     2     3   1
     6     3     8   1
     7     3     4   1
     8     4     9   1
     9     4     5   1
    10     5    10   1
    11     5     6   1
    12     6    11   1
    13    21    15   1
    14    15    16   1
    15    15    14   1
    16    14    20   1
    17    14    13   1
    18    13    19   1
    19    13    12   1
    20    12    22   1
    21    12    18   1
    22    22    16   1
    23    16    17   1
    24    17    23   1
    25     1    24   1
    26     2    25   1
    27     3    26   1
    28     4    27   1
    29     5    28   1
    30     6    29   1
    31     6    30   1
    32     7    31   1
    33     8    32   1
    34     9    33   1
    35    11    34   1
    36    12    35   1
    37    13    36   1
    38    14    37   1
    39    15    38   1
    40    16    39   1
    41    17    40   1
    42    17    41   1
    43    18    42   1
    44    19    43   1
    45    20    44   1
    46    23    45   1
@<TRIPOS>SUBSTRUCTURE
     1  CBI      1

