@<TRIPOS>MOLECULE
1qi0_ligand_038
    45    46
SMALL
GAST_HUCK
****
This file was generated by PARSER (from files_GN.cpp)

@<TRIPOS>ATOM
      1 C1         -0.3021   39.9748   13.5923 C.3         1 CBI       0.1884
      2 C2         -1.2436   41.2055   13.5344 C.3         1 CBI       0.1341
      3 C3         -0.4536   42.4925   13.1671 C.3         1 CBI       0.1141
      4 C4          0.7815   42.6693   14.0925 C.3         1 CBI       0.1119
      5 C5          1.6444   41.3717   14.1250 C.3         1 CBI       0.1130
      6 C6          2.7925   41.4480   15.1659 C.3         1 CBI       0.0730
      7 O2         -2.2794   40.9816   12.5797 O.3         1 CBI      -0.3841
      8 O3         -1.2974   43.6433   13.2420 O.3         1 CBI      -0.3864
      9 O4          1.5667   43.7857   13.6731 O.3         1 CBI      -0.3865
     10 O5          0.8109   40.2482   14.4660 O.3         1 CBI      -0.3405
     11 O6          3.4202   40.1786   15.3373 O.3         1 CBI      -0.3924
     12 C1'        -0.3102   35.0021   15.7093 C.3         1 CBI       0.1854
     13 C2'         0.5232   36.1733   16.2925 C.3         1 CBI       0.1339
     14 C3'        -0.1401   37.5243   15.9343 C.3         1 CBI       0.1144
     15 C4'        -0.3588   37.6322   14.3925 C.3         1 CBI       0.1184
     16 C5'        -1.1860   36.4008   13.9098 C.3         1 CBI       0.1134
     17 C6'        -1.3589   36.3395   12.3709 C.3         1 CBI       0.0730
     18 O1'         0.3746   33.7683   15.9026 O.3         1 CBI      -0.3649
     19 O2'         0.6493   36.0554   17.7125 O.3         1 CBI      -0.3841
     20 O3'         0.6924   38.5666   16.4359 O.3         1 CBI      -0.3864
     21 O4'        -1.0672   38.8539   14.0870 O.3         1 CBI      -0.3401
     22 O5'        -0.5299   35.1684   14.2932 O.3         1 CBI      -0.3407
     23 O6'        -2.1381   37.4253   11.8797 O.3         1 CBI      -0.3924
     24 H1          0.0646   39.7387   12.5882 H           1 CBI       0.0938
     25 H2         -1.7067   41.3386   14.5156 H           1 CBI       0.0671
     26 H3         -0.1104   42.4075   12.1340 H           1 CBI       0.0648
     27 H4          0.4226   42.8832   15.1053 H           1 CBI       0.0647
     28 H5          2.0907   41.2066   13.1391 H           1 CBI       0.0647
     29 H6          2.4075   41.7796   16.1343 H           1 CBI       0.0584
     30 H7          3.5529   42.1582   14.8313 H           1 CBI       0.0584
     31 H8         -2.9797   41.6378   12.7915 H           1 CBI       0.2101
     32 H9         -1.1493   44.0381   14.1302 H           1 CBI       0.2100
     33 H10         1.6439   43.6969   12.6981 H           1 CBI       0.2100
     34 H11         2.7051   39.5778   15.6360 H           1 CBI       0.2095
     35 H12        -1.2732   34.9321   16.2248 H           1 CBI       0.0935
     36 H13         1.5256   36.1495   15.8539 H           1 CBI       0.0671
     37 H14        -1.1057   37.5961   16.4464 H           1 CBI       0.0648
     38 H15         0.6212   37.5908   13.9008 H           1 CBI       0.0651
     39 H16        -2.1859   36.4270   14.3584 H           1 CBI       0.0647
     40 H17        -1.8708   35.4122   12.1016 H           1 CBI       0.0584
     41 H18        -0.3811   36.3461   11.8811 H           1 CBI       0.0584
     42 H19         1.1356   33.7985   15.2845 H           1 CBI       0.2126
     43 H20         1.3915   35.4297   17.8553 H           1 CBI       0.2101
     44 H21         0.1303   39.3701   16.4618 H           1 CBI       0.2100
     45 H22        -2.1661   37.2960   10.9071 H           1 CBI       0.2095
@<TRIPOS>BOND
     1     1    21   1
     2     1    10   1
     3     1     2   1
     4     2     7   1
     5     2     3   1
     6     3     8   1
     7     3     4   1
     8     4     9   1
     9     4     5   1
    10     5    10   1
    11     5     6   1
    12     6    11   1
    13    21    15   1
    14    15    16   1
    15    15    14   1
    16    14    20   1
    17    14    13   1
    18    13    19   1
    19    13    12   1
    20    12    22   1
    21    12    18   1
    22    22    16   1
    23    16    17   1
    24    17    23   1
    25     1    24   1
    26     2    25   1
    27     3    26   1
    28     4    27   1
    29     5    28   1
    30     6    29   1
    31     6    30   1
    32     7    31   1
    33     8    32   1
    34     9    33   1
    35    11    34   1
    36    12    35   1
    37    13    36   1
    38    14    37   1
    39    15    38   1
    40    16    39   1
    41    17    40   1
    42    17    41   1
    43    18    42   1
    44    19    43   1
    45    20    44   1
    46    23    45   1
@<TRIPOS>SUBSTRUCTURE
     1  CBI      1

