@<TRIPOS>MOLECULE
1qi0_ligand_054
    45    46
SMALL
GAST_HUCK
****
This file was generated by PARSER (from files_GN.cpp)

@<TRIPOS>ATOM
      1 C1          1.1069   39.7127   11.8452 C.3         1 CBI       0.1884
      2 C2          1.7154   38.4865   11.1089 C.3         1 CBI       0.1341
      3 C3          0.9172   37.1872   11.3951 C.3         1 CBI       0.1141
      4 C4          0.6372   37.0029   12.9107 C.3         1 CBI       0.1119
      5 C5         -0.0016   38.2952   13.5004 C.3         1 CBI       0.1130
      6 C6         -0.2373   38.1932   15.0306 C.3         1 CBI       0.0730
      7 O2          1.7442   38.7307    9.7018 O.3         1 CBI      -0.3841
      8 O3          1.6351   36.0593   10.8920 O.3         1 CBI      -0.3864
      9 O4         -0.2170   35.8728   13.1029 O.3         1 CBI      -0.3865
     10 O5          0.8634   39.4244   13.2404 O.3         1 CBI      -0.3405
     11 O6         -1.4411   38.8558   15.4172 O.3         1 CBI      -0.3924
     12 C1'         3.1212   44.3532    9.8382 C.3         1 CBI       0.1854
     13 C2'         1.7603   44.3728   10.5869 C.3         1 CBI       0.1339
     14 C3'         1.6421   43.1562   11.5425 C.3         1 CBI       0.1144
     15 C4'         1.9903   41.8164   10.8272 C.3         1 CBI       0.1184
     16 C5'         3.3640   41.9555   10.0956 C.3         1 CBI       0.1134
     17 C6'         3.7428   40.6987    9.2744 C.3         1 CBI       0.0730
     18 O1'         3.1365   45.3543    8.8253 O.3         1 CBI      -0.3649
     19 O2'         1.6295   45.5793   11.3437 O.3         1 CBI      -0.3841
     20 O3'         0.3186   43.1128   12.0795 O.3         1 CBI      -0.3864
     21 O4'         2.0796   40.7779   11.8279 O.3         1 CBI      -0.3401
     22 O5'         3.3401   43.0828    9.1922 O.3         1 CBI      -0.3407
     23 O6'         5.0088   40.8642    8.6294 O.3         1 CBI      -0.3924
     24 H1          0.1589   40.0066   11.3795 H           1 CBI       0.0938
     25 H2          2.7448   38.3516   11.4534 H           1 CBI       0.0671
     26 H3         -0.0393   37.2377   10.8639 H           1 CBI       0.0648
     27 H4          1.5806   36.8017   13.4298 H           1 CBI       0.0647
     28 H5         -0.9739   38.4596   13.0201 H           1 CBI       0.0647
     29 H6          0.6022   38.6257   15.5786 H           1 CBI       0.0584
     30 H7         -0.3371   37.1489   15.3311 H           1 CBI       0.0584
     31 H8          2.3676   38.0672    9.3349 H           1 CBI       0.2101
     32 H9          2.5306   36.1244   11.2864 H           1 CBI       0.2100
     33 H10        -1.0557   36.0978   12.6466 H           1 CBI       0.2100
     34 H11        -1.1920   39.7427   15.7476 H           1 CBI       0.2095
     35 H12         3.9404   44.5710   10.5354 H           1 CBI       0.0935
     36 H13         0.9471   44.3310    9.8538 H           1 CBI       0.0671
     37 H14         2.3354   43.3024   12.3798 H           1 CBI       0.0648
     38 H15         1.2240   41.6001   10.0711 H           1 CBI       0.0651
     39 H16         4.1513   42.1031   10.8419 H           1 CBI       0.0647
     40 H17         2.9831   40.4963    8.5113 H           1 CBI       0.0584
     41 H18         3.8177   39.8342    9.9355 H           1 CBI       0.0584
     42 H19         3.8732   45.0976    8.2280 H           1 CBI       0.2126
     43 H20         0.8887   46.0656   10.9277 H           1 CBI       0.2101
     44 H21         0.3571   42.4686   12.8162 H           1 CBI       0.2100
     45 H22         4.8568   41.5371    7.9293 H           1 CBI       0.2095
@<TRIPOS>BOND
     1     1    21   1
     2     1    10   1
     3     1     2   1
     4     2     7   1
     5     2     3   1
     6     3     8   1
     7     3     4   1
     8     4     9   1
     9     4     5   1
    10     5    10   1
    11     5     6   1
    12     6    11   1
    13    21    15   1
    14    15    16   1
    15    15    14   1
    16    14    20   1
    17    14    13   1
    18    13    19   1
    19    13    12   1
    20    12    22   1
    21    12    18   1
    22    22    16   1
    23    16    17   1
    24    17    23   1
    25     1    24   1
    26     2    25   1
    27     3    26   1
    28     4    27   1
    29     5    28   1
    30     6    29   1
    31     6    30   1
    32     7    31   1
    33     8    32   1
    34     9    33   1
    35    11    34   1
    36    12    35   1
    37    13    36   1
    38    14    37   1
    39    15    38   1
    40    16    39   1
    41    17    40   1
    42    17    41   1
    43    18    42   1
    44    19    43   1
    45    20    44   1
    46    23    45   1
@<TRIPOS>SUBSTRUCTURE
     1  CBI      1

