@<TRIPOS>MOLECULE
1qi0_ligand_043
    45    46
SMALL
GAST_HUCK
****
This file was generated by PARSER (from files_GN.cpp)

@<TRIPOS>ATOM
      1 C1          1.9987   42.4318   11.1035 C.3         1 CBI       0.1884
      2 C2          2.5500   41.2093   10.3199 C.3         1 CBI       0.1341
      3 C3          3.8688   41.5731    9.5852 C.3         1 CBI       0.1141
      4 C4          3.7039   42.8674    8.7450 C.3         1 CBI       0.1119
      5 C5          3.1845   44.0201    9.6594 C.3         1 CBI       0.1130
      6 C6          2.9365   45.3677    8.9209 C.3         1 CBI       0.0730
      7 O2          2.7839   40.1098   11.1991 O.3         1 CBI      -0.3841
      8 O3          4.2763   40.5035    8.7324 O.3         1 CBI      -0.3864
      9 O4          4.9575   43.1869    8.1450 O.3         1 CBI      -0.3865
     10 O5          1.9423   43.6017   10.2552 O.3         1 CBI      -0.3405
     11 O6          4.0540   46.2556    8.9821 O.3         1 CBI      -0.3924
     12 C1'        -3.3469   43.2305   11.6310 C.3         1 CBI       0.1854
     13 C2'        -2.5892   43.4053   10.2881 C.3         1 CBI       0.1339
     14 C3'        -1.2616   42.5985   10.3205 C.3         1 CBI       0.1144
     15 C4'        -0.4216   42.9536   11.5812 C.3         1 CBI       0.1184
     16 C5'        -1.2967   42.7960   12.8585 C.3         1 CBI       0.1134
     17 C6'        -0.5344   43.2550   14.1254 C.3         1 CBI       0.0730
     18 O1'        -4.4903   44.0799   11.6805 O.3         1 CBI      -0.3649
     19 O2'        -3.4195   42.9752    9.2108 O.3         1 CBI      -0.3841
     20 O3'        -0.5127   42.8340    9.1315 O.3         1 CBI      -0.3864
     21 O4'         0.7304   42.0842   11.7041 O.3         1 CBI      -0.3401
     22 O5'        -2.5067   43.5815   12.7477 O.3         1 CBI      -0.3407
     23 O6'        -1.4104   43.2557   15.2477 O.3         1 CBI      -0.3924
     24 H1          2.6733   42.6461   11.9395 H           1 CBI       0.0938
     25 H2          1.8078   40.8986    9.5811 H           1 CBI       0.0671
     26 H3          4.6632   41.7324   10.3200 H           1 CBI       0.0648
     27 H4          2.9782   42.6907    7.9452 H           1 CBI       0.0647
     28 H5          3.9009   44.2098   10.4682 H           1 CBI       0.0647
     29 H6          2.0903   45.8976    9.3710 H           1 CBI       0.0584
     30 H7          2.7055   45.1868    7.8710 H           1 CBI       0.0584
     31 H8          1.8950   39.7880   11.4593 H           1 CBI       0.2101
     32 H9          4.6931   39.8429    9.3294 H           1 CBI       0.2100
     33 H10         4.7821   43.9503    7.5548 H           1 CBI       0.2100
     34 H11         4.3884   46.2089    9.9055 H           1 CBI       0.2095
     35 H12        -3.6926   42.1973   11.7424 H           1 CBI       0.0935
     36 H13        -2.3640   44.4648   10.1454 H           1 CBI       0.0671
     37 H14        -1.4970   41.5311   10.3418 H           1 CBI       0.0648
     38 H15        -0.1325   44.0084   11.5294 H           1 CBI       0.0651
     39 H16        -1.5582   41.7409   12.9925 H           1 CBI       0.0647
     40 H17        -0.1351   44.2636   13.9825 H           1 CBI       0.0584
     41 H18         0.2963   42.5779   14.3415 H           1 CBI       0.0584
     42 H19        -5.1230   43.7047   11.0304 H           1 CBI       0.2126
     43 H20        -2.9680   43.2841    8.3926 H           1 CBI       0.2101
     44 H21         0.1212   43.5511    9.3606 H           1 CBI       0.2100
     45 H22        -0.8434   43.5131   16.0048 H           1 CBI       0.2095
@<TRIPOS>BOND
     1     1    21   1
     2     1    10   1
     3     1     2   1
     4     2     7   1
     5     2     3   1
     6     3     8   1
     7     3     4   1
     8     4     9   1
     9     4     5   1
    10     5    10   1
    11     5     6   1
    12     6    11   1
    13    21    15   1
    14    15    16   1
    15    15    14   1
    16    14    20   1
    17    14    13   1
    18    13    19   1
    19    13    12   1
    20    12    22   1
    21    12    18   1
    22    22    16   1
    23    16    17   1
    24    17    23   1
    25     1    24   1
    26     2    25   1
    27     3    26   1
    28     4    27   1
    29     5    28   1
    30     6    29   1
    31     6    30   1
    32     7    31   1
    33     8    32   1
    34     9    33   1
    35    11    34   1
    36    12    35   1
    37    13    36   1
    38    14    37   1
    39    15    38   1
    40    16    39   1
    41    17    40   1
    42    17    41   1
    43    18    42   1
    44    19    43   1
    45    20    44   1
    46    23    45   1
@<TRIPOS>SUBSTRUCTURE
     1  CBI      1

