@<TRIPOS>MOLECULE
1qi0_ligand_050
    45    46
SMALL
GAST_HUCK
****
This file was generated by PARSER (from files_GN.cpp)

@<TRIPOS>ATOM
      1 C1          2.4650   39.0682   11.8494 C.3         1 CBI       0.1884
      2 C2          2.0281   38.1844   10.6502 C.3         1 CBI       0.1341
      3 C3          2.9282   38.4789    9.4190 C.3         1 CBI       0.1141
      4 C4          2.9764   40.0058    9.1097 C.3         1 CBI       0.1119
      5 C5          3.3311   40.8186   10.3895 C.3         1 CBI       0.1130
      6 C6          3.2249   42.3536   10.1807 C.3         1 CBI       0.0730
      7 O2          2.0966   36.7950   10.9833 O.3         1 CBI      -0.3841
      8 O3          2.4591   37.7612    8.2788 O.3         1 CBI      -0.3864
      9 O4          3.9177   40.2505    8.0622 O.3         1 CBI      -0.3865
     10 O5          2.4387   40.4620   11.4735 O.3         1 CBI      -0.3405
     11 O6          3.9822   42.7911    9.0546 O.3         1 CBI      -0.3924
     12 C1'         1.6838   37.8387   17.0512 C.3         1 CBI       0.1854
     13 C2'         2.9305   38.5840   16.5089 C.3         1 CBI       0.1339
     14 C3'         2.6190   39.2531   15.1420 C.3         1 CBI       0.1144
     15 C4'         1.9714   38.2384   14.1452 C.3         1 CBI       0.1184
     16 C5'         0.7439   37.5582   14.8296 C.3         1 CBI       0.1134
     17 C6'         0.0760   36.4582   13.9674 C.3         1 CBI       0.0730
     18 O1'         2.0191   37.0944   18.2188 O.3         1 CBI      -0.3649
     19 O2'         3.3630   39.5634   17.4516 O.3         1 CBI      -0.3841
     20 O3'         3.8338   39.8065   14.6364 O.3         1 CBI      -0.3864
     21 O4'         1.5325   38.9174   12.9458 O.3         1 CBI      -0.3401
     22 O5'         1.1455   36.9343   16.0704 O.3         1 CBI      -0.3407
     23 O6'        -0.4093   36.9674   12.7290 O.3         1 CBI      -0.3924
     24 H1          3.4852   38.8042   12.1409 H           1 CBI       0.0938
     25 H2          0.9898   38.4145   10.3951 H           1 CBI       0.0671
     26 H3          3.9438   38.1278    9.6298 H           1 CBI       0.0648
     27 H4          1.9928   40.3178    8.7496 H           1 CBI       0.0647
     28 H5          4.3638   40.5975   10.6846 H           1 CBI       0.0647
     29 H6          3.6028   42.8729   11.0647 H           1 CBI       0.0584
     30 H7          2.1819   42.6438   10.0340 H           1 CBI       0.0584
     31 H8          1.7329   36.7352   11.8945 H           1 CBI       0.2101
     32 H9          1.5522   38.0977    8.1155 H           1 CBI       0.2100
     33 H10         4.7945   40.0018    8.4276 H           1 CBI       0.2100
     34 H11         4.8885   42.4426    9.1994 H           1 CBI       0.2095
     35 H12         0.9188   38.5649   17.3351 H           1 CBI       0.0935
     36 H13         3.7450   37.8678   16.3807 H           1 CBI       0.0671
     37 H14         1.9197   40.0773   15.3092 H           1 CBI       0.0648
     38 H15         2.6992   37.4544   13.9068 H           1 CBI       0.0651
     39 H16        -0.0193   38.3141   15.0401 H           1 CBI       0.0647
     40 H17        -0.7720   36.0362   14.5069 H           1 CBI       0.0584
     41 H18         0.7863   35.6559   13.7622 H           1 CBI       0.0584
     42 H19         2.1772   36.1755   17.9134 H           1 CBI       0.2126
     43 H20         2.5917   40.1551   17.5848 H           1 CBI       0.2101
     44 H21         3.5707   40.4318   13.9302 H           1 CBI       0.2100
     45 H22        -1.1394   37.5757   12.9673 H           1 CBI       0.2095
@<TRIPOS>BOND
     1     1    21   1
     2     1    10   1
     3     1     2   1
     4     2     7   1
     5     2     3   1
     6     3     8   1
     7     3     4   1
     8     4     9   1
     9     4     5   1
    10     5    10   1
    11     5     6   1
    12     6    11   1
    13    21    15   1
    14    15    16   1
    15    15    14   1
    16    14    20   1
    17    14    13   1
    18    13    19   1
    19    13    12   1
    20    12    22   1
    21    12    18   1
    22    22    16   1
    23    16    17   1
    24    17    23   1
    25     1    24   1
    26     2    25   1
    27     3    26   1
    28     4    27   1
    29     5    28   1
    30     6    29   1
    31     6    30   1
    32     7    31   1
    33     8    32   1
    34     9    33   1
    35    11    34   1
    36    12    35   1
    37    13    36   1
    38    14    37   1
    39    15    38   1
    40    16    39   1
    41    17    40   1
    42    17    41   1
    43    18    42   1
    44    19    43   1
    45    20    44   1
    46    23    45   1
@<TRIPOS>SUBSTRUCTURE
     1  CBI      1

