@<TRIPOS>MOLECULE
1qi0_ligand_041
    45    46
SMALL
GAST_HUCK
****
This file was generated by PARSER (from files_GN.cpp)

@<TRIPOS>ATOM
      1 C1          2.9242   42.4766   10.2709 C.3         1 CBI       0.1884
      2 C2          2.9222   42.3368    8.7230 C.3         1 CBI       0.1341
      3 C3          3.6649   43.5305    8.0593 C.3         1 CBI       0.1141
      4 C4          3.1498   44.8982    8.5896 C.3         1 CBI       0.1119
      5 C5          3.1204   44.9034   10.1447 C.3         1 CBI       0.1130
      6 C6          2.4527   46.1832   10.7102 C.3         1 CBI       0.0730
      7 O2          3.5285   41.1078    8.3214 O.3         1 CBI      -0.3841
      8 O3          3.4848   43.4793    6.6414 O.3         1 CBI      -0.3864
      9 O4          3.9298   45.9999    8.1150 O.3         1 CBI      -0.3865
     10 O5          2.3639   43.7644   10.6041 O.3         1 CBI      -0.3405
     11 O6          1.4788   45.8307   11.7025 O.3         1 CBI      -0.3924
     12 C1'        -0.7531   43.1849   13.2821 C.3         1 CBI       0.1854
     13 C2'         0.4579   42.6259   14.0666 C.3         1 CBI       0.1339
     14 C3'         1.6490   42.3162   13.1205 C.3         1 CBI       0.1144
     15 C4'         1.1945   41.5089   11.8563 C.3         1 CBI       0.1184
     16 C5'        -0.1477   42.0311   11.2355 C.3         1 CBI       0.1134
     17 C6'        -0.7589   41.0275   10.2238 C.3         1 CBI       0.0730
     18 O1'        -1.8761   43.3219   14.1371 O.3         1 CBI      -0.3649
     19 O2'         0.9152   43.5553   15.0436 O.3         1 CBI      -0.3841
     20 O3'         2.6524   41.5801   13.8350 O.3         1 CBI      -0.3864
     21 O4'         2.2006   41.3550   10.8180 O.3         1 CBI      -0.3401
     22 O5'        -1.1408   42.2608   12.2577 O.3         1 CBI      -0.3407
     23 O6'        -1.9476   41.5547    9.6527 O.3         1 CBI      -0.3924
     24 H1          3.9458   42.4027   10.6473 H           1 CBI       0.0938
     25 H2          1.8774   42.3325    8.3771 H           1 CBI       0.0671
     26 H3          4.7317   43.4459    8.2726 H           1 CBI       0.0648
     27 H4          2.1230   45.0360    8.2362 H           1 CBI       0.0647
     28 H5          4.1430   44.8656   10.5396 H           1 CBI       0.0647
     29 H6          1.9440   46.7527    9.9131 H           1 CBI       0.0584
     30 H7          3.1976   46.8386   11.1851 H           1 CBI       0.0584
     31 H8          2.9251   40.4096    8.6585 H           1 CBI       0.2101
     32 H9          3.8477   42.6086    6.3790 H           1 CBI       0.2100
     33 H10         4.0045   45.8513    7.1467 H           1 CBI       0.2100
     34 H11         0.7738   46.5120   11.5869 H           1 CBI       0.2095
     35 H12        -0.5260   44.1629   12.8567 H           1 CBI       0.0935
     36 H13         0.1646   41.7043   14.5771 H           1 CBI       0.0671
     37 H14         2.0926   43.2684   12.8200 H           1 CBI       0.0648
     38 H15         0.9913   40.4931   12.2070 H           1 CBI       0.0651
     39 H16         0.0234   42.9750   10.7029 H           1 CBI       0.0647
     40 H17        -0.9970   40.0942   10.7303 H           1 CBI       0.0584
     41 H18        -0.0504   40.8247    9.4212 H           1 CBI       0.0584
     42 H19        -2.4118   44.0354   13.7367 H           1 CBI       0.2126
     43 H20         0.1137   44.0085   15.3804 H           1 CBI       0.2101
     44 H21         3.4690   41.6597   13.2982 H           1 CBI       0.2100
     45 H22        -2.2701   40.8570    9.0498 H           1 CBI       0.2095
@<TRIPOS>BOND
     1     1    21   1
     2     1    10   1
     3     1     2   1
     4     2     7   1
     5     2     3   1
     6     3     8   1
     7     3     4   1
     8     4     9   1
     9     4     5   1
    10     5    10   1
    11     5     6   1
    12     6    11   1
    13    21    15   1
    14    15    16   1
    15    15    14   1
    16    14    20   1
    17    14    13   1
    18    13    19   1
    19    13    12   1
    20    12    22   1
    21    12    18   1
    22    22    16   1
    23    16    17   1
    24    17    23   1
    25     1    24   1
    26     2    25   1
    27     3    26   1
    28     4    27   1
    29     5    28   1
    30     6    29   1
    31     6    30   1
    32     7    31   1
    33     8    32   1
    34     9    33   1
    35    11    34   1
    36    12    35   1
    37    13    36   1
    38    14    37   1
    39    15    38   1
    40    16    39   1
    41    17    40   1
    42    17    41   1
    43    18    42   1
    44    19    43   1
    45    20    44   1
    46    23    45   1
@<TRIPOS>SUBSTRUCTURE
     1  CBI      1

