@<TRIPOS>MOLECULE
1qi0_ligand_036
    45    46
SMALL
GAST_HUCK
****
This file was generated by PARSER (from files_GN.cpp)

@<TRIPOS>ATOM
      1 C1          0.2338   42.0935    9.1730 C.3         1 CBI       0.1884
      2 C2          0.8442   41.7035    7.7968 C.3         1 CBI       0.1341
      3 C3          2.3956   41.8563    7.8413 C.3         1 CBI       0.1141
      4 C4          2.8092   43.2628    8.3705 C.3         1 CBI       0.1119
      5 C5          2.0734   43.5815    9.7017 C.3         1 CBI       0.1130
      6 C6          2.3651   45.0256   10.1777 C.3         1 CBI       0.0730
      7 O2          0.5029   40.3560    7.4626 O.3         1 CBI      -0.3841
      8 O3          2.9644   41.6256    6.5469 O.3         1 CBI      -0.3864
      9 O4          4.2264   43.3531    8.5665 O.3         1 CBI      -0.3865
     10 O5          0.6466   43.4344    9.5173 O.3         1 CBI      -0.3405
     11 O6          1.6069   45.3370   11.3482 O.3         1 CBI      -0.3924
     12 C1'        -3.0300   44.2861   12.2574 C.3         1 CBI       0.1854
     13 C2'        -2.5939   42.8525   12.6597 C.3         1 CBI       0.1339
     14 C3'        -1.5619   42.2966   11.6415 C.3         1 CBI       0.1144
     15 C4'        -2.0835   42.4221   10.1694 C.3         1 CBI       0.1184
     16 C5'        -2.5804   43.8755    9.8806 C.3         1 CBI       0.1134
     17 C6'        -3.3277   43.9871    8.5246 C.3         1 CBI       0.0730
     18 O1'        -4.0873   44.7282   13.1104 O.3         1 CBI      -0.3649
     19 O2'        -2.0327   42.8623   13.9683 O.3         1 CBI      -0.3841
     20 O3'        -1.2587   40.9384   11.9710 O.3         1 CBI      -0.3864
     21 O4'        -1.2004   41.9490    9.1163 O.3         1 CBI      -0.3401
     22 O5'        -3.5078   44.3255   10.8948 O.3         1 CBI      -0.3407
     23 O6'        -3.4634   45.3549    8.1350 O.3         1 CBI      -0.3924
     24 H1          0.6072   41.3935    9.9282 H           1 CBI       0.0938
     25 H2          0.4413   42.3532    7.0151 H           1 CBI       0.0671
     26 H3          2.8029   41.0858    8.5106 H           1 CBI       0.0648
     27 H4          2.5134   44.0160    7.6317 H           1 CBI       0.0647
     28 H5          2.4219   42.8986   10.4853 H           1 CBI       0.0647
     29 H6          2.1327   45.7491    9.3856 H           1 CBI       0.0584
     30 H7          3.4239   45.1210   10.4322 H           1 CBI       0.0584
     31 H8         -0.4734   40.3609    7.2961 H           1 CBI       0.2101
     32 H9          2.7897   40.6606    6.3690 H           1 CBI       0.2100
     33 H10         4.5715   43.8444    7.7871 H           1 CBI       0.2100
     34 H11         0.9263   45.9880   11.0502 H           1 CBI       0.2095
     35 H12        -2.1880   44.9805   12.3801 H           1 CBI       0.0935
     36 H13        -3.4719   42.2041   12.6796 H           1 CBI       0.0671
     37 H14        -0.6406   42.8832   11.7448 H           1 CBI       0.0648
     38 H15        -2.9628   41.7695   10.0976 H           1 CBI       0.0651
     39 H16        -1.7203   44.5447    9.8449 H           1 CBI       0.0647
     40 H17        -4.3307   43.5559    8.6083 H           1 CBI       0.0584
     41 H18        -2.7915   43.4573    7.7287 H           1 CBI       0.0584
     42 H19        -4.9075   44.3730   12.6993 H           1 CBI       0.2126
     43 H20        -1.2560   43.4627   13.9313 H           1 CBI       0.2101
     44 H21        -2.0937   40.4537   11.8575 H           1 CBI       0.2100
     45 H22        -2.5441   45.6312    7.8991 H           1 CBI       0.2095
@<TRIPOS>BOND
     1     1    21   1
     2     1    10   1
     3     1     2   1
     4     2     7   1
     5     2     3   1
     6     3     8   1
     7     3     4   1
     8     4     9   1
     9     4     5   1
    10     5    10   1
    11     5     6   1
    12     6    11   1
    13    21    15   1
    14    15    16   1
    15    15    14   1
    16    14    20   1
    17    14    13   1
    18    13    19   1
    19    13    12   1
    20    12    22   1
    21    12    18   1
    22    22    16   1
    23    16    17   1
    24    17    23   1
    25     1    24   1
    26     2    25   1
    27     3    26   1
    28     4    27   1
    29     5    28   1
    30     6    29   1
    31     6    30   1
    32     7    31   1
    33     8    32   1
    34     9    33   1
    35    11    34   1
    36    12    35   1
    37    13    36   1
    38    14    37   1
    39    15    38   1
    40    16    39   1
    41    17    40   1
    42    17    41   1
    43    18    42   1
    44    19    43   1
    45    20    44   1
    46    23    45   1
@<TRIPOS>SUBSTRUCTURE
     1  CBI      1

