@<TRIPOS>MOLECULE
1qi0_ligand_009
    45    46
SMALL
GAST_HUCK
****
This file was generated by PARSER (from files_GN.cpp)

@<TRIPOS>ATOM
      1 C1          0.9454   43.4610   13.0314 C.3         1 CBI       0.1884
      2 C2         -0.4090   42.9332   12.4726 C.3         1 CBI       0.1341
      3 C3         -0.9933   41.7882   13.3441 C.3         1 CBI       0.1141
      4 C4          0.0968   40.7255   13.6437 C.3         1 CBI       0.1119
      5 C5          1.3401   41.4052   14.2945 C.3         1 CBI       0.1130
      6 C6          2.4780   40.4254   14.6652 C.3         1 CBI       0.0730
      7 O2         -1.3432   44.0039   12.3681 O.3         1 CBI      -0.3841
      8 O3         -2.1072   41.2179   12.6590 O.3         1 CBI      -0.3864
      9 O4         -0.4482   39.6757   14.4457 O.3         1 CBI      -0.3865
     10 O5          1.8785   42.3984   13.3685 O.3         1 CBI      -0.3405
     11 O6          3.2424   40.0531   13.5212 O.3         1 CBI      -0.3924
     12 C1'         3.0878   43.3164    8.2533 C.3         1 CBI       0.1854
     13 C2'         3.1496   42.1825    9.3046 C.3         1 CBI       0.1339
     14 C3'         2.1676   42.5194   10.4789 C.3         1 CBI       0.1144
     15 C4'         2.4636   43.9286   11.0805 C.3         1 CBI       0.1184
     16 C5'         2.4881   44.9797    9.9294 C.3         1 CBI       0.1134
     17 C6'         2.9544   46.3843   10.4005 C.3         1 CBI       0.0730
     18 O1'         4.0673   43.0818    7.2486 O.3         1 CBI      -0.3649
     19 O2'         2.8571   40.9275    8.6878 O.3         1 CBI      -0.3841
     20 O3'         2.2952   41.5283   11.5164 O.3         1 CBI      -0.3864
     21 O4'         1.5106   44.3724   12.0639 O.3         1 CBI      -0.3401
     22 O5'         3.3763   44.5845    8.8744 O.3         1 CBI      -0.3407
     23 O6'         3.7746   47.0229    9.4010 O.3         1 CBI      -0.3924
     24 H1          0.7214   44.0533   13.9235 H           1 CBI       0.0938
     25 H2         -0.2573   42.5364   11.4583 H           1 CBI       0.0671
     26 H3         -1.3536   42.2134   14.2784 H           1 CBI       0.0648
     27 H4          0.4015   40.2611   12.6986 H           1 CBI       0.0647
     28 H5          1.0253   41.8906   15.2261 H           1 CBI       0.0647
     29 H6          2.0645   39.5329   15.1353 H           1 CBI       0.0584
     30 H7          3.1444   40.9042   15.3805 H           1 CBI       0.0584
     31 H8         -1.7341   43.8895   11.4715 H           1 CBI       0.2101
     32 H9         -2.5614   40.6444   13.3121 H           1 CBI       0.2100
     33 H10        -0.6682   40.0841   15.3076 H           1 CBI       0.2100
     34 H11         3.8192   40.8212   13.3369 H           1 CBI       0.2095
     35 H12         2.0975   43.3264    7.7727 H           1 CBI       0.0935
     36 H13         4.1684   42.1414    9.7006 H           1 CBI       0.0671
     37 H14         1.1201   42.4801   10.1112 H           1 CBI       0.0648
     38 H15         3.4534   43.8892   11.5344 H           1 CBI       0.0651
     39 H16         1.4781   45.0988    9.5336 H           1 CBI       0.0647
     40 H17         3.5379   46.3140   11.3376 H           1 CBI       0.0584
     41 H18         2.0916   47.0441   10.5929 H           1 CBI       0.0584
     42 H19         4.3328   43.9739    6.9585 H           1 CBI       0.2126
     43 H20         3.2847   40.2576    9.2629 H           1 CBI       0.2101
     44 H21         1.9898   40.6869   11.0845 H           1 CBI       0.2100
     45 H22         4.6080   47.2696    9.8770 H           1 CBI       0.2095
@<TRIPOS>BOND
     1     1    21   1
     2     1    10   1
     3     1     2   1
     4     2     7   1
     5     2     3   1
     6     3     8   1
     7     3     4   1
     8     4     9   1
     9     4     5   1
    10     5    10   1
    11     5     6   1
    12     6    11   1
    13    21    15   1
    14    15    16   1
    15    15    14   1
    16    14    20   1
    17    14    13   1
    18    13    19   1
    19    13    12   1
    20    12    22   1
    21    12    18   1
    22    22    16   1
    23    16    17   1
    24    17    23   1
    25     1    24   1
    26     2    25   1
    27     3    26   1
    28     4    27   1
    29     5    28   1
    30     6    29   1
    31     6    30   1
    32     7    31   1
    33     8    32   1
    34     9    33   1
    35    11    34   1
    36    12    35   1
    37    13    36   1
    38    14    37   1
    39    15    38   1
    40    16    39   1
    41    17    40   1
    42    17    41   1
    43    18    42   1
    44    19    43   1
    45    20    44   1
    46    23    45   1
@<TRIPOS>SUBSTRUCTURE
     1  CBI      1

