@<TRIPOS>MOLECULE
1qi0_ligand_047
    45    46
SMALL
GAST_HUCK
****
This file was generated by PARSER (from files_GN.cpp)

@<TRIPOS>ATOM
      1 C1          2.6907   40.8179   13.1192 C.3         1 CBI       0.1884
      2 C2          2.3814   41.2755   14.5754 C.3         1 CBI       0.1341
      3 C3          2.6795   40.1258   15.5784 C.3         1 CBI       0.1141
      4 C4          1.9429   38.8260   15.1522 C.3         1 CBI       0.1119
      5 C5          2.2870   38.4769   13.6774 C.3         1 CBI       0.1130
      6 C6          1.5177   37.2475   13.1314 C.3         1 CBI       0.0730
      7 O2          3.1646   42.4240   14.8837 O.3         1 CBI      -0.3841
      8 O3          2.2852   40.4936   16.8965 O.3         1 CBI      -0.3864
      9 O4          2.2971   37.7479   16.0162 O.3         1 CBI      -0.3865
     10 O5          1.9709   39.6034   12.8239 O.3         1 CBI      -0.3405
     11 O6          0.1230   37.5127   12.9748 O.3         1 CBI      -0.3924
     12 C1'         3.0263   42.7604    8.0796 C.3         1 CBI       0.1854
     13 C2'         3.0536   41.2558    8.4445 C.3         1 CBI       0.1339
     14 C3'         2.4011   41.0042    9.8339 C.3         1 CBI       0.1144
     15 C4'         2.9751   41.9677   10.9189 C.3         1 CBI       0.1184
     16 C5'         2.8290   43.4317   10.4103 C.3         1 CBI       0.1134
     17 C6'         3.4150   44.4841   11.3890 C.3         1 CBI       0.0730
     18 O1'         3.8479   42.9589    6.9354 O.3         1 CBI      -0.3649
     19 O2'         2.4033   40.5090    7.4132 O.3         1 CBI      -0.3841
     20 O3'         2.6189   39.6430   10.2007 O.3         1 CBI      -0.3864
     21 O4'         2.2960   41.8615   12.1989 O.3         1 CBI      -0.3401
     22 O5'         3.5307   43.5734    9.1502 O.3         1 CBI      -0.3407
     23 O6'         3.2903   45.7905   10.8285 O.3         1 CBI      -0.3924
     24 H1          3.7663   40.6275   13.0434 H           1 CBI       0.0938
     25 H2          1.3270   41.5521   14.6587 H           1 CBI       0.0671
     26 H3          3.7539   39.9354   15.5970 H           1 CBI       0.0648
     27 H4          0.8647   38.9866   15.2324 H           1 CBI       0.0647
     28 H5          3.3593   38.2525   13.6073 H           1 CBI       0.0647
     29 H6          1.6518   36.3857   13.7845 H           1 CBI       0.0584
     30 H7          1.9194   36.9899   12.1495 H           1 CBI       0.0584
     31 H8          3.0377   42.5828   15.8409 H           1 CBI       0.2101
     32 H9          2.8484   41.2601   17.1349 H           1 CBI       0.2100
     33 H10         2.0116   38.0302   16.9075 H           1 CBI       0.2100
     34 H11        -0.2234   37.6616   13.8819 H           1 CBI       0.2095
     35 H12         2.0103   43.0689    7.8310 H           1 CBI       0.0935
     36 H13         4.0970   40.9344    8.4837 H           1 CBI       0.0671
     37 H14         1.3211   41.1645    9.7616 H           1 CBI       0.0648
     38 H15         4.0472   41.7671   11.0307 H           1 CBI       0.0651
     39 H16         1.7697   43.6752   10.2693 H           1 CBI       0.0647
     40 H17         4.4696   44.2779   11.5781 H           1 CBI       0.0584
     41 H18         2.8847   44.4690   12.3455 H           1 CBI       0.0584
     42 H19         4.0128   43.9218    6.8756 H           1 CBI       0.2126
     43 H20         2.4993   39.5641    7.6581 H           1 CBI       0.2101
     44 H21         2.1894   39.1037    9.5020 H           1 CBI       0.2100
     45 H22         4.1524   46.2283   10.9937 H           1 CBI       0.2095
@<TRIPOS>BOND
     1     1    21   1
     2     1    10   1
     3     1     2   1
     4     2     7   1
     5     2     3   1
     6     3     8   1
     7     3     4   1
     8     4     9   1
     9     4     5   1
    10     5    10   1
    11     5     6   1
    12     6    11   1
    13    21    15   1
    14    15    16   1
    15    15    14   1
    16    14    20   1
    17    14    13   1
    18    13    19   1
    19    13    12   1
    20    12    22   1
    21    12    18   1
    22    22    16   1
    23    16    17   1
    24    17    23   1
    25     1    24   1
    26     2    25   1
    27     3    26   1
    28     4    27   1
    29     5    28   1
    30     6    29   1
    31     6    30   1
    32     7    31   1
    33     8    32   1
    34     9    33   1
    35    11    34   1
    36    12    35   1
    37    13    36   1
    38    14    37   1
    39    15    38   1
    40    16    39   1
    41    17    40   1
    42    17    41   1
    43    18    42   1
    44    19    43   1
    45    20    44   1
    46    23    45   1
@<TRIPOS>SUBSTRUCTURE
     1  CBI      1

