@<TRIPOS>MOLECULE
1qi0_ligand_032
    45    46
SMALL
GAST_HUCK
****
This file was generated by PARSER (from files_GN.cpp)

@<TRIPOS>ATOM
      1 C1          1.2651   40.8568   12.5042 C.3         1 CBI       0.1884
      2 C2          1.9438   39.7387   11.6597 C.3         1 CBI       0.1341
      3 C3          3.3885   40.1454   11.2365 C.3         1 CBI       0.1141
      4 C4          3.4063   41.5622   10.6036 C.3         1 CBI       0.1119
      5 C5          2.7311   42.5840   11.5650 C.3         1 CBI       0.1130
      6 C6          2.6574   44.0350   11.0266 C.3         1 CBI       0.0730
      7 O2          1.9680   38.5224   12.4109 O.3         1 CBI      -0.3841
      8 O3          3.9213   39.2171   10.2879 O.3         1 CBI      -0.3864
      9 O4          4.7502   41.9363   10.3051 O.3         1 CBI      -0.3865
     10 O5          1.3899   42.1320   11.8380 O.3         1 CBI      -0.3405
     11 O6          1.7393   44.1682    9.9463 O.3         1 CBI      -0.3924
     12 C1'        -2.3520   43.2584   10.5813 C.3         1 CBI       0.1854
     13 C2'        -2.4832   43.4552   12.1087 C.3         1 CBI       0.1339
     14 C3'        -1.3843   42.6452   12.8491 C.3         1 CBI       0.1144
     15 C4'        -1.2780   41.1678   12.3407 C.3         1 CBI       0.1184
     16 C5'        -1.4757   40.9954   10.7918 C.3         1 CBI       0.1134
     17 C6'        -1.9314   39.5630   10.4035 C.3         1 CBI       0.0730
     18 O1'        -3.3874   43.9714    9.9170 O.3         1 CBI      -0.3649
     19 O2'        -2.3659   44.8462   12.4060 O.3         1 CBI      -0.3841
     20 O3'        -1.6559   42.6532   14.2547 O.3         1 CBI      -0.3864
     21 O4'        -0.0971   40.4940   12.8480 O.3         1 CBI      -0.3401
     22 O5'        -2.4985   41.8671   10.2593 O.3         1 CBI      -0.3407
     23 O6'        -1.0979   38.5399   10.9437 O.3         1 CBI      -0.3924
     24 H1          1.7928   40.9230   13.4640 H           1 CBI       0.0938
     25 H2          1.3654   39.5737   10.7505 H           1 CBI       0.0671
     26 H3          4.0351   40.1351   12.1173 H           1 CBI       0.0648
     27 H4          2.8414   41.5256    9.6649 H           1 CBI       0.0647
     28 H5          3.2878   42.6277   12.5036 H           1 CBI       0.0647
     29 H6          3.6433   44.3652   10.6964 H           1 CBI       0.0584
     30 H7          2.3335   44.7028   11.8245 H           1 CBI       0.0584
     31 H8          2.6585   37.9606   11.9986 H           1 CBI       0.2101
     32 H9          4.3264   38.4955   10.8128 H           1 CBI       0.2100
     33 H10         4.6790   42.5328    9.5315 H           1 CBI       0.2100
     34 H11         2.1725   43.7344    9.1824 H           1 CBI       0.2095
     35 H12        -1.3874   43.6363   10.2230 H           1 CBI       0.0935
     36 H13        -3.4721   43.1089   12.4266 H           1 CBI       0.0671
     37 H14        -0.4515   43.1821   12.7126 H           1 CBI       0.0648
     38 H15        -2.1235   40.6463   12.8041 H           1 CBI       0.0651
     39 H16        -0.5396   41.2071   10.2684 H           1 CBI       0.0647
     40 H17        -1.9397   39.4598    9.3180 H           1 CBI       0.0584
     41 H18        -2.9490   39.3947   10.7713 H           1 CBI       0.0584
     42 H19        -3.3828   43.6366    8.9965 H           1 CBI       0.2126
     43 H20        -2.9897   45.0022   13.1500 H           1 CBI       0.2101
     44 H21        -0.9066   42.1893   14.6868 H           1 CBI       0.2100
     45 H22        -1.4871   37.6995   10.6291 H           1 CBI       0.2095
@<TRIPOS>BOND
     1     1    21   1
     2     1    10   1
     3     1     2   1
     4     2     7   1
     5     2     3   1
     6     3     8   1
     7     3     4   1
     8     4     9   1
     9     4     5   1
    10     5    10   1
    11     5     6   1
    12     6    11   1
    13    21    15   1
    14    15    16   1
    15    15    14   1
    16    14    20   1
    17    14    13   1
    18    13    19   1
    19    13    12   1
    20    12    22   1
    21    12    18   1
    22    22    16   1
    23    16    17   1
    24    17    23   1
    25     1    24   1
    26     2    25   1
    27     3    26   1
    28     4    27   1
    29     5    28   1
    30     6    29   1
    31     6    30   1
    32     7    31   1
    33     8    32   1
    34     9    33   1
    35    11    34   1
    36    12    35   1
    37    13    36   1
    38    14    37   1
    39    15    38   1
    40    16    39   1
    41    17    40   1
    42    17    41   1
    43    18    42   1
    44    19    43   1
    45    20    44   1
    46    23    45   1
@<TRIPOS>SUBSTRUCTURE
     1  CBI      1

