@<TRIPOS>MOLECULE
1qi0_ligand_046
    45    46
SMALL
GAST_HUCK
****
This file was generated by PARSER (from files_GN.cpp)

@<TRIPOS>ATOM
      1 C1          1.3707   39.3108   13.3672 C.3         1 CBI       0.1884
      2 C2          1.8773   40.7539   13.6702 C.3         1 CBI       0.1341
      3 C3          3.0225   40.7324   14.7190 C.3         1 CBI       0.1141
      4 C4          2.6609   39.8596   15.9577 C.3         1 CBI       0.1119
      5 C5          2.1930   38.4424   15.4960 C.3         1 CBI       0.1130
      6 C6          1.6650   37.5568   16.6531 C.3         1 CBI       0.0730
      7 O2          2.3000   41.3994   12.4730 O.3         1 CBI      -0.3841
      8 O3          3.3344   42.0642   15.1313 O.3         1 CBI      -0.3864
      9 O4          3.7936   39.7801   16.8223 O.3         1 CBI      -0.3865
     10 O5          1.0891   38.5639   14.5691 O.3         1 CBI      -0.3405
     11 O6          2.5923   37.4385   17.7313 O.3         1 CBI      -0.3924
     12 C1'        -4.0155   39.9436   12.8903 C.3         1 CBI       0.1854
     13 C2'        -3.1165   41.1493   12.4982 C.3         1 CBI       0.1339
     14 C3'        -1.7187   40.6775   12.0391 C.3         1 CBI       0.1144
     15 C4'        -1.0938   39.6869   13.0604 C.3         1 CBI       0.1184
     16 C5'        -2.0888   38.5015   13.2854 C.3         1 CBI       0.1134
     17 C6'        -1.6274   37.4433   14.3210 C.3         1 CBI       0.0730
     18 O1'        -5.1497   40.4305   13.5959 O.3         1 CBI      -0.3649
     19 O2'        -3.7400   41.8940   11.4511 O.3         1 CBI      -0.3841
     20 O3'        -0.8697   41.8002   11.8279 O.3         1 CBI      -0.3864
     21 O4'         0.1880   39.2557   12.5249 O.3         1 CBI      -0.3401
     22 O5'        -3.3403   39.0281   13.7693 O.3         1 CBI      -0.3407
     23 O6'        -0.5274   36.6758   13.8390 O.3         1 CBI      -0.3924
     24 H1          2.1549   38.7914   12.8112 H           1 CBI       0.0938
     25 H2          1.0518   41.3373   14.0808 H           1 CBI       0.0671
     26 H3          3.9295   40.3133   14.2542 H           1 CBI       0.0648
     27 H4          1.8452   40.3501   16.5082 H           1 CBI       0.0647
     28 H5          3.0205   37.9275   15.0278 H           1 CBI       0.0647
     29 H6          1.4598   36.5530   16.2618 H           1 CBI       0.0584
     30 H7          0.7168   37.9675   17.0537 H           1 CBI       0.0584
     31 H8          3.2671   41.5995   12.5893 H           1 CBI       0.2101
     32 H9          2.5355   42.3910   15.5914 H           1 CBI       0.2100
     33 H10         3.9040   40.6897   17.1381 H           1 CBI       0.2100
     34 H11         2.6725   36.4626   17.8826 H           1 CBI       0.2095
     35 H12        -4.3483   39.4195   11.9905 H           1 CBI       0.0935
     36 H13        -2.9990   41.8071   13.3654 H           1 CBI       0.0671
     37 H14        -1.8145   40.1701   11.0762 H           1 CBI       0.0648
     38 H15        -0.9718   40.2067   14.0195 H           1 CBI       0.0651
     39 H16        -2.2539   37.9732   12.3447 H           1 CBI       0.0647
     40 H17        -2.4564   36.7627   14.5379 H           1 CBI       0.0584
     41 H18        -1.3301   37.9277   15.2568 H           1 CBI       0.0584
     42 H19        -5.9225   40.2638   13.0010 H           1 CBI       0.2126
     43 H20        -4.4829   42.3836   11.8838 H           1 CBI       0.2101
     44 H21        -0.7018   42.1780   12.7144 H           1 CBI       0.2100
     45 H22        -0.3339   36.0423   14.5644 H           1 CBI       0.2095
@<TRIPOS>BOND
     1     1    21   1
     2     1    10   1
     3     1     2   1
     4     2     7   1
     5     2     3   1
     6     3     8   1
     7     3     4   1
     8     4     9   1
     9     4     5   1
    10     5    10   1
    11     5     6   1
    12     6    11   1
    13    21    15   1
    14    15    16   1
    15    15    14   1
    16    14    20   1
    17    14    13   1
    18    13    19   1
    19    13    12   1
    20    12    22   1
    21    12    18   1
    22    22    16   1
    23    16    17   1
    24    17    23   1
    25     1    24   1
    26     2    25   1
    27     3    26   1
    28     4    27   1
    29     5    28   1
    30     6    29   1
    31     6    30   1
    32     7    31   1
    33     8    32   1
    34     9    33   1
    35    11    34   1
    36    12    35   1
    37    13    36   1
    38    14    37   1
    39    15    38   1
    40    16    39   1
    41    17    40   1
    42    17    41   1
    43    18    42   1
    44    19    43   1
    45    20    44   1
    46    23    45   1
@<TRIPOS>SUBSTRUCTURE
     1  CBI      1

