@<TRIPOS>MOLECULE
1qi0_ligand_035
    45    46
SMALL
GAST_HUCK
****
This file was generated by PARSER (from files_GN.cpp)

@<TRIPOS>ATOM
      1 C1         -1.1162   37.6703   16.1490 C.3         1 CBI       0.1884
      2 C2         -2.4406   36.8855   15.9448 C.3         1 CBI       0.1341
      3 C3         -3.1239   36.5971   17.3091 C.3         1 CBI       0.1141
      4 C4         -2.1297   35.9492   18.3104 C.3         1 CBI       0.1119
      5 C5         -0.8254   36.7946   18.4060 C.3         1 CBI       0.1130
      6 C6          0.2272   36.1378   19.3305 C.3         1 CBI       0.0730
      7 O2         -3.3143   37.6304   15.0933 O.3         1 CBI      -0.3841
      8 O3         -4.2556   35.7467   17.1260 O.3         1 CBI      -0.3864
      9 O4         -2.7518   35.8102   19.5879 O.3         1 CBI      -0.3865
     10 O5         -0.2570   36.9866   17.0871 O.3         1 CBI      -0.3405
     11 O6          1.5412   36.5537   18.9766 O.3         1 CBI      -0.3924
     12 C1'         2.0878   40.4512   12.8059 C.3         1 CBI       0.1854
     13 C2'         2.1534   40.5411   14.3555 C.3         1 CBI       0.1339
     14 C3'         1.5106   39.2799   15.0000 C.3         1 CBI       0.1144
     15 C4'         0.0939   38.9924   14.4164 C.3         1 CBI       0.1184
     16 C5'         0.1728   38.9550   12.8585 C.3         1 CBI       0.1134
     17 C6'        -1.2011   38.7607   12.1679 C.3         1 CBI       0.0730
     18 O1'         2.4795   41.6895   12.2158 O.3         1 CBI      -0.3649
     19 O2'         3.5142   40.6558   14.7804 O.3         1 CBI      -0.3841
     20 O3'         1.4304   39.4566   16.4141 O.3         1 CBI      -0.3864
     21 O4'        -0.4201   37.7236   14.8842 O.3         1 CBI      -0.3401
     22 O5'         0.7478   40.1791   12.3519 O.3         1 CBI      -0.3407
     23 O6'        -2.0124   39.9286   12.2239 O.3         1 CBI      -0.3924
     24 H1         -1.3505   38.6685   16.5372 H           1 CBI       0.0938
     25 H2         -2.2134   35.9322   15.4489 H           1 CBI       0.0671
     26 H3         -3.4860   37.5400   17.7302 H           1 CBI       0.0648
     27 H4         -1.8772   34.9433   17.9527 H           1 CBI       0.0647
     28 H5         -1.0700   37.7705   18.8356 H           1 CBI       0.0647
     29 H6          0.1686   35.0472   19.2725 H           1 CBI       0.0584
     30 H7          0.0485   36.4389   20.3628 H           1 CBI       0.0584
     31 H8         -4.0490   37.0252   14.8840 H           1 CBI       0.2101
     32 H9         -3.9006   34.9170   16.7393 H           1 CBI       0.2100
     33 H10        -2.6785   36.6925   20.0089 H           1 CBI       0.2100
     34 H11         1.8657   35.8657   18.3526 H           1 CBI       0.2095
     35 H12         2.7678   39.6722   12.4442 H           1 CBI       0.0935
     36 H13         1.6119   41.4311   14.6855 H           1 CBI       0.0671
     37 H14         2.1532   38.4140   14.8119 H           1 CBI       0.0648
     38 H15        -0.5783   39.8104   14.6990 H           1 CBI       0.0651
     39 H16         0.8017   38.1116   12.5563 H           1 CBI       0.0647
     40 H17        -1.7447   37.9335   12.6234 H           1 CBI       0.0584
     41 H18        -1.0448   38.5156   11.1166 H           1 CBI       0.0584
     42 H19         3.4485   41.7500   12.3508 H           1 CBI       0.2126
     43 H20         3.9459   41.2547   14.1384 H           1 CBI       0.2101
     44 H21         2.0023   40.2342   16.6132 H           1 CBI       0.2100
     45 H22        -2.3282   39.9840   13.1497 H           1 CBI       0.2095
@<TRIPOS>BOND
     1     1    21   1
     2     1    10   1
     3     1     2   1
     4     2     7   1
     5     2     3   1
     6     3     8   1
     7     3     4   1
     8     4     9   1
     9     4     5   1
    10     5    10   1
    11     5     6   1
    12     6    11   1
    13    21    15   1
    14    15    16   1
    15    15    14   1
    16    14    20   1
    17    14    13   1
    18    13    19   1
    19    13    12   1
    20    12    22   1
    21    12    18   1
    22    22    16   1
    23    16    17   1
    24    17    23   1
    25     1    24   1
    26     2    25   1
    27     3    26   1
    28     4    27   1
    29     5    28   1
    30     6    29   1
    31     6    30   1
    32     7    31   1
    33     8    32   1
    34     9    33   1
    35    11    34   1
    36    12    35   1
    37    13    36   1
    38    14    37   1
    39    15    38   1
    40    16    39   1
    41    17    40   1
    42    17    41   1
    43    18    42   1
    44    19    43   1
    45    20    44   1
    46    23    45   1
@<TRIPOS>SUBSTRUCTURE
     1  CBI      1

