@<TRIPOS>MOLECULE
1qi0_ligand_044
    45    46
SMALL
GAST_HUCK
****
This file was generated by PARSER (from files_GN.cpp)

@<TRIPOS>ATOM
      1 C1          1.4834   38.6110   13.4499 C.3         1 CBI       0.1884
      2 C2          1.5637   40.1493   13.6407 C.3         1 CBI       0.1341
      3 C3          2.5275   40.4965   14.8110 C.3         1 CBI       0.1141
      4 C4          2.1769   39.7032   16.1056 C.3         1 CBI       0.1119
      5 C5          2.0224   38.1783   15.8115 C.3         1 CBI       0.1130
      6 C6          1.4247   37.3747   17.0026 C.3         1 CBI       0.0730
      7 O2          2.0040   40.7672   12.4319 O.3         1 CBI      -0.3841
      8 O3          2.4854   41.9040   15.0588 O.3         1 CBI      -0.3864
      9 O4          3.1763   39.9365   17.1021 O.3         1 CBI      -0.3865
     10 O5          1.1247   37.9809   14.6958 O.3         1 CBI      -0.3405
     11 O6          2.2907   37.3009   18.1380 O.3         1 CBI      -0.3924
     12 C1'         1.9262   35.2071    9.9374 C.3         1 CBI       0.1854
     13 C2'         1.5883   36.5645    9.2742 C.3         1 CBI       0.1339
     14 C3'         1.4946   37.6731   10.3591 C.3         1 CBI       0.1144
     15 C4'         0.5429   37.2625   11.5261 C.3         1 CBI       0.1184
     16 C5'         0.8999   35.8350   12.0672 C.3         1 CBI       0.1134
     17 C6'        -0.1461   35.2438   13.0641 C.3         1 CBI       0.0730
     18 O1'         1.8635   34.1538    8.9794 O.3         1 CBI      -0.3649
     19 O2'         2.5834   36.8819    8.3025 O.3         1 CBI      -0.3841
     20 O3'         1.0436   38.8900    9.7660 O.3         1 CBI      -0.3864
     21 O4'         0.4223   38.3166   12.5135 O.3         1 CBI      -0.3401
     22 O5'         0.9789   34.8928   10.9716 O.3         1 CBI      -0.3407
     23 O6'         0.2181   35.4471   14.4269 O.3         1 CBI      -0.3924
     24 H1          2.4532   38.2385   13.1057 H           1 CBI       0.0938
     25 H2          0.5667   40.5331   13.8772 H           1 CBI       0.0671
     26 H3          3.5535   40.2521   14.5078 H           1 CBI       0.0648
     27 H4          1.2274   40.0819   16.4939 H           1 CBI       0.0647
     28 H5          2.9989   37.7531   15.5627 H           1 CBI       0.0647
     29 H6          1.2087   36.3498   16.6887 H           1 CBI       0.0584
     30 H7          0.4878   37.8303   17.3257 H           1 CBI       0.0584
     31 H8          1.9753   41.7339   12.6021 H           1 CBI       0.2101
     32 H9          1.5652   42.0903   15.3435 H           1 CBI       0.2100
     33 H10         3.1917   40.9099   17.2271 H           1 CBI       0.2100
     34 H11         2.8402   36.4974   17.9929 H           1 CBI       0.2095
     35 H12         2.9394   35.2222   10.3474 H           1 CBI       0.0935
     36 H13         0.6234   36.4771    8.7672 H           1 CBI       0.0671
     37 H14         2.4971   37.8561   10.7516 H           1 CBI       0.0648
     38 H15        -0.4572   37.1847   11.0892 H           1 CBI       0.0651
     39 H16         1.8734   35.8743   12.5673 H           1 CBI       0.0647
     40 H17        -0.2365   34.1601   12.9282 H           1 CBI       0.0584
     41 H18        -1.1368   35.6794   12.9078 H           1 CBI       0.0584
     42 H19         0.9200   34.1098    8.6978 H           1 CBI       0.2126
     43 H20         2.2728   37.7076    7.8740 H           1 CBI       0.2101
     44 H21         0.1527   38.6929    9.3995 H           1 CBI       0.2100
     45 H22         1.0998   35.0222   14.5241 H           1 CBI       0.2095
@<TRIPOS>BOND
     1     1    21   1
     2     1    10   1
     3     1     2   1
     4     2     7   1
     5     2     3   1
     6     3     8   1
     7     3     4   1
     8     4     9   1
     9     4     5   1
    10     5    10   1
    11     5     6   1
    12     6    11   1
    13    21    15   1
    14    15    16   1
    15    15    14   1
    16    14    20   1
    17    14    13   1
    18    13    19   1
    19    13    12   1
    20    12    22   1
    21    12    18   1
    22    22    16   1
    23    16    17   1
    24    17    23   1
    25     1    24   1
    26     2    25   1
    27     3    26   1
    28     4    27   1
    29     5    28   1
    30     6    29   1
    31     6    30   1
    32     7    31   1
    33     8    32   1
    34     9    33   1
    35    11    34   1
    36    12    35   1
    37    13    36   1
    38    14    37   1
    39    15    38   1
    40    16    39   1
    41    17    40   1
    42    17    41   1
    43    18    42   1
    44    19    43   1
    45    20    44   1
    46    23    45   1
@<TRIPOS>SUBSTRUCTURE
     1  CBI      1

