@<TRIPOS>MOLECULE
1qi0_ligand_008
    45    46
SMALL
GAST_HUCK
****
This file was generated by PARSER (from files_GN.cpp)

@<TRIPOS>ATOM
      1 C1          2.4300   42.8407   11.7154 C.3         1 CBI       0.1884
      2 C2          1.4304   42.4286   10.6010 C.3         1 CBI       0.1341
      3 C3          1.9298   43.0102    9.2545 C.3         1 CBI       0.1141
      4 C4          2.1156   44.5506    9.3602 C.3         1 CBI       0.1119
      5 C5          2.9500   44.9457   10.6237 C.3         1 CBI       0.1130
      6 C6          3.0170   46.4769   10.8445 C.3         1 CBI       0.0730
      7 O2          1.2754   41.0146   10.5050 O.3         1 CBI      -0.3841
      8 O3          1.0192   42.6610    8.2137 O.3         1 CBI      -0.3864
      9 O4          2.7313   45.0286    8.1617 O.3         1 CBI      -0.3865
     10 O5          2.4316   44.2907   11.8177 O.3         1 CBI      -0.3405
     11 O6          3.6643   47.1208    9.7433 O.3         1 CBI      -0.3924
     12 C1'         3.3361   38.9479   15.3655 C.3         1 CBI       0.1854
     13 C2'         3.2346   40.3450   16.0190 C.3         1 CBI       0.1339
     14 C3'         2.4100   41.3106   15.1263 C.3         1 CBI       0.1144
     15 C4'         2.9349   41.3398   13.6590 C.3         1 CBI       0.1184
     16 C5'         3.0485   39.8695   13.1037 C.3         1 CBI       0.1134
     17 C6'         3.7322   39.6433   11.7149 C.3         1 CBI       0.0730
     18 O1'         4.2884   38.1662   16.0788 O.3         1 CBI      -0.3649
     19 O2'         2.6605   40.2172   17.3193 O.3         1 CBI      -0.3841
     20 O3'         2.4480   42.6416   15.6502 O.3         1 CBI      -0.3864
     21 O4'         2.0126   42.2089   12.9471 O.3         1 CBI      -0.3401
     22 O5'         3.8091   39.0520   14.0215 O.3         1 CBI      -0.3407
     23 O6'         5.0673   39.1344   11.8066 O.3         1 CBI      -0.3924
     24 H1          3.4487   42.5261   11.4479 H           1 CBI       0.0938
     25 H2          0.4419   42.8439   10.8325 H           1 CBI       0.0671
     26 H3          2.8932   42.5536    9.0031 H           1 CBI       0.0648
     27 H4          1.1265   45.0123    9.4371 H           1 CBI       0.0647
     28 H5          3.9787   44.6091   10.4726 H           1 CBI       0.0647
     29 H6          3.5828   46.6951   11.7544 H           1 CBI       0.0584
     30 H7          2.0146   46.8931   10.9561 H           1 CBI       0.0584
     31 H8          0.8729   40.7465   11.3575 H           1 CBI       0.2101
     32 H9          0.1260   42.7517    8.6070 H           1 CBI       0.2100
     33 H10         3.6563   44.6993    8.1800 H           1 CBI       0.2100
     34 H11         4.5553   47.3553   10.0693 H           1 CBI       0.2095
     35 H12         2.3713   38.4326   15.3746 H           1 CBI       0.0935
     36 H13         4.2417   40.7565   16.1370 H           1 CBI       0.0671
     37 H14         1.3662   40.9832   15.1293 H           1 CBI       0.0648
     38 H15         3.9354   41.7839   13.6860 H           1 CBI       0.0651
     39 H16         2.0281   39.4687   13.0396 H           1 CBI       0.0647
     40 H17         3.7990   40.5595   11.1283 H           1 CBI       0.0584
     41 H18         3.1442   38.9172   11.1365 H           1 CBI       0.0584
     42 H19         4.8635   37.7558   15.3965 H           1 CBI       0.2126
     43 H20         1.7755   39.8228   17.1635 H           1 CBI       0.2101
     44 H21         2.7555   42.5530   16.5755 H           1 CBI       0.2100
     45 H22         5.3514   39.0035   10.8758 H           1 CBI       0.2095
@<TRIPOS>BOND
     1     1    21   1
     2     1    10   1
     3     1     2   1
     4     2     7   1
     5     2     3   1
     6     3     8   1
     7     3     4   1
     8     4     9   1
     9     4     5   1
    10     5    10   1
    11     5     6   1
    12     6    11   1
    13    21    15   1
    14    15    16   1
    15    15    14   1
    16    14    20   1
    17    14    13   1
    18    13    19   1
    19    13    12   1
    20    12    22   1
    21    12    18   1
    22    22    16   1
    23    16    17   1
    24    17    23   1
    25     1    24   1
    26     2    25   1
    27     3    26   1
    28     4    27   1
    29     5    28   1
    30     6    29   1
    31     6    30   1
    32     7    31   1
    33     8    32   1
    34     9    33   1
    35    11    34   1
    36    12    35   1
    37    13    36   1
    38    14    37   1
    39    15    38   1
    40    16    39   1
    41    17    40   1
    42    17    41   1
    43    18    42   1
    44    19    43   1
    45    20    44   1
    46    23    45   1
@<TRIPOS>SUBSTRUCTURE
     1  CBI      1

