@<TRIPOS>MOLECULE
1qi0_ligand_024
    45    46
SMALL
GAST_HUCK
****
This file was generated by PARSER (from files_GN.cpp)

@<TRIPOS>ATOM
      1 C1          1.0076   39.0660   14.4661 C.3         1 CBI       0.1884
      2 C2          2.1922   40.0098   14.7955 C.3         1 CBI       0.1341
      3 C3          3.2705   39.2508   15.6156 C.3         1 CBI       0.1141
      4 C4          2.6641   38.5266   16.8509 C.3         1 CBI       0.1119
      5 C5          1.4557   37.6457   16.4177 C.3         1 CBI       0.1130
      6 C6          0.6785   37.0179   17.6049 C.3         1 CBI       0.0730
      7 O2          2.7483   40.5157   13.5783 O.3         1 CBI      -0.3841
      8 O3          4.2919   40.1480   16.0447 O.3         1 CBI      -0.3864
      9 O4          3.6628   37.7089   17.4712 O.3         1 CBI      -0.3865
     10 O5          0.5110   38.4345   15.6635 O.3         1 CBI      -0.3405
     11 O6          1.5055   36.7457   18.7298 O.3         1 CBI      -0.3924
     12 C1'        -3.9308   39.3956   12.2365 C.3         1 CBI       0.1854
     13 C2'        -3.7728   39.0684   13.7489 C.3         1 CBI       0.1339
     14 C3'        -2.4202   39.6144   14.2893 C.3         1 CBI       0.1144
     15 C4'        -1.2263   39.1769   13.3937 C.3         1 CBI       0.1184
     16 C5'        -1.5237   39.5617   11.9137 C.3         1 CBI       0.1134
     17 C6'        -0.4328   39.0946   10.9148 C.3         1 CBI       0.0730
     18 O1'        -5.0480   38.7032   11.6830 O.3         1 CBI      -0.3649
     19 O2'        -4.8466   39.6381   14.5020 O.3         1 CBI      -0.3841
     20 O3'        -2.2304   39.1596   15.6281 O.3         1 CBI      -0.3864
     21 O4'        -0.0320   39.8507   13.8486 O.3         1 CBI      -0.3401
     22 O5'        -2.7710   38.9702   11.4937 O.3         1 CBI      -0.3407
     23 O6'         0.7251   39.9261   10.9406 O.3         1 CBI      -0.3924
     24 H1          1.3441   38.3009   13.7536 H           1 CBI       0.0938
     25 H2          1.8227   40.8522   15.3879 H           1 CBI       0.0671
     26 H3          3.7431   38.5029   14.9713 H           1 CBI       0.0648
     27 H4          2.3237   39.2692   17.5775 H           1 CBI       0.0647
     28 H5          1.8166   36.8262   15.7889 H           1 CBI       0.0647
     29 H6          0.2113   36.0827   17.2814 H           1 CBI       0.0584
     30 H7         -0.1178   37.6962   17.9294 H           1 CBI       0.0584
     31 H8          3.5831   40.9739   13.8153 H           1 CBI       0.2101
     32 H9          3.8351   40.9331   16.4137 H           1 CBI       0.2100
     33 H10         4.2630   38.3185   17.9490 H           1 CBI       0.2100
     34 H11         1.9751   35.9143   18.5049 H           1 CBI       0.2095
     35 H12        -4.0907   40.4690   12.0965 H           1 CBI       0.0935
     36 H13        -3.7993   37.9804   13.8842 H           1 CBI       0.0671
     37 H14        -2.4640   40.7078   14.3136 H           1 CBI       0.0648
     38 H15        -1.1324   38.0863   13.4525 H           1 CBI       0.0651
     39 H16        -1.5971   40.6509   11.8288 H           1 CBI       0.0647
     40 H17        -0.8307   39.1418    9.8977 H           1 CBI       0.0584
     41 H18        -0.1408   38.0659   11.1175 H           1 CBI       0.0584
     42 H19        -5.8429   39.1399   12.0612 H           1 CBI       0.2126
     43 H20        -5.6265   39.0706   14.3200 H           1 CBI       0.2101
     44 H21        -2.8749   39.6556   16.1769 H           1 CBI       0.2100
     45 H22         1.1409   39.7706   11.8172 H           1 CBI       0.2095
@<TRIPOS>BOND
     1     1    21   1
     2     1    10   1
     3     1     2   1
     4     2     7   1
     5     2     3   1
     6     3     8   1
     7     3     4   1
     8     4     9   1
     9     4     5   1
    10     5    10   1
    11     5     6   1
    12     6    11   1
    13    21    15   1
    14    15    16   1
    15    15    14   1
    16    14    20   1
    17    14    13   1
    18    13    19   1
    19    13    12   1
    20    12    22   1
    21    12    18   1
    22    22    16   1
    23    16    17   1
    24    17    23   1
    25     1    24   1
    26     2    25   1
    27     3    26   1
    28     4    27   1
    29     5    28   1
    30     6    29   1
    31     6    30   1
    32     7    31   1
    33     8    32   1
    34     9    33   1
    35    11    34   1
    36    12    35   1
    37    13    36   1
    38    14    37   1
    39    15    38   1
    40    16    39   1
    41    17    40   1
    42    17    41   1
    43    18    42   1
    44    19    43   1
    45    20    44   1
    46    23    45   1
@<TRIPOS>SUBSTRUCTURE
     1  CBI      1

