@<TRIPOS>MOLECULE
1qi0_ligand_018
    45    46
SMALL
GAST_HUCK
****
This file was generated by PARSER (from files_GN.cpp)

@<TRIPOS>ATOM
      1 C1         -0.2458   40.9126   12.7715 C.3         1 CBI       0.1884
      2 C2         -1.8010   40.8900   12.6524 C.3         1 CBI       0.1341
      3 C3         -2.3183   42.0699   11.7857 C.3         1 CBI       0.1141
      4 C4         -1.7174   43.4291   12.2541 C.3         1 CBI       0.1119
      5 C5         -0.1627   43.3159   12.3302 C.3         1 CBI       0.1130
      6 C6          0.5167   44.5991   12.8709 C.3         1 CBI       0.0730
      7 O2         -2.2304   39.6473   12.0903 O.3         1 CBI      -0.3841
      8 O3         -3.7502   42.1054   11.8384 O.3         1 CBI      -0.3864
      9 O4         -2.1071   44.4623   11.3518 O.3         1 CBI      -0.3865
     10 O5          0.2301   42.2156   13.1812 O.3         1 CBI      -0.3405
     11 O6          0.9387   44.4440   14.2243 O.3         1 CBI      -0.3924
     12 C1'         3.3441   38.2108   15.7901 C.3         1 CBI       0.1854
     13 C2'         3.2636   39.7526   15.9256 C.3         1 CBI       0.1339
     14 C3'         1.8838   40.2711   15.4294 C.3         1 CBI       0.1144
     15 C4'         1.5038   39.6882   14.0310 C.3         1 CBI       0.1184
     16 C5'         1.7073   38.1394   14.0086 C.3         1 CBI       0.1134
     17 C6'         1.4355   37.5135   12.6179 C.3         1 CBI       0.0730
     18 O1'         4.6546   37.7780   16.1356 O.3         1 CBI      -0.3649
     19 O2'         3.4662   40.1045   17.2958 O.3         1 CBI      -0.3841
     20 O3'         1.9162   41.7043   15.3976 O.3         1 CBI      -0.3864
     21 O4'         0.1056   39.9451   13.7754 O.3         1 CBI      -0.3401
     22 O5'         3.0483   37.7887   14.4359 O.3         1 CBI      -0.3407
     23 O6'         1.9693   38.2960   11.5488 O.3         1 CBI      -0.3924
     24 H1          0.1989   40.6358   11.8069 H           1 CBI       0.0938
     25 H2         -2.2297   40.9812   13.6524 H           1 CBI       0.0671
     26 H3         -2.0175   41.8983   10.7398 H           1 CBI       0.0648
     27 H4         -2.1144   43.6699   13.2428 H           1 CBI       0.0647
     28 H5          0.2204   43.1493   11.3090 H           1 CBI       0.0647
     29 H6         -0.1568   45.4643   12.8051 H           1 CBI       0.0584
     30 H7          1.4103   44.8241   12.2700 H           1 CBI       0.0584
     31 H8         -2.0357   38.9796   12.7801 H           1 CBI       0.2101
     32 H9         -4.0218   42.7164   11.1318 H           1 CBI       0.2100
     33 H10        -2.2410   44.0130   10.4902 H           1 CBI       0.2100
     34 H11         0.1154   44.4507   14.7649 H           1 CBI       0.2095
     35 H12         2.6478   37.7436   16.5002 H           1 CBI       0.0935
     36 H13         4.0607   40.2036   15.3265 H           1 CBI       0.0671
     37 H14         1.1208   39.9701   16.1546 H           1 CBI       0.0648
     38 H15         2.1662   40.1417   13.2779 H           1 CBI       0.0651
     39 H16         0.9889   37.6755   14.7036 H           1 CBI       0.0647
     40 H17         0.3591   37.4202   12.4609 H           1 CBI       0.0584
     41 H18         1.8784   36.5137   12.5728 H           1 CBI       0.0584
     42 H19         5.0964   37.5627   15.2823 H           1 CBI       0.2126
     43 H20         2.5691   40.3283   17.6368 H           1 CBI       0.2101
     44 H21         2.5307   41.9682   16.1187 H           1 CBI       0.2100
     45 H22         2.9042   38.0098   11.4609 H           1 CBI       0.2095
@<TRIPOS>BOND
     1     1    21   1
     2     1    10   1
     3     1     2   1
     4     2     7   1
     5     2     3   1
     6     3     8   1
     7     3     4   1
     8     4     9   1
     9     4     5   1
    10     5    10   1
    11     5     6   1
    12     6    11   1
    13    21    15   1
    14    15    16   1
    15    15    14   1
    16    14    20   1
    17    14    13   1
    18    13    19   1
    19    13    12   1
    20    12    22   1
    21    12    18   1
    22    22    16   1
    23    16    17   1
    24    17    23   1
    25     1    24   1
    26     2    25   1
    27     3    26   1
    28     4    27   1
    29     5    28   1
    30     6    29   1
    31     6    30   1
    32     7    31   1
    33     8    32   1
    34     9    33   1
    35    11    34   1
    36    12    35   1
    37    13    36   1
    38    14    37   1
    39    15    38   1
    40    16    39   1
    41    17    40   1
    42    17    41   1
    43    18    42   1
    44    19    43   1
    45    20    44   1
    46    23    45   1
@<TRIPOS>SUBSTRUCTURE
     1  CBI      1

