@<TRIPOS>MOLECULE
1qi0_ligand_039
    45    46
SMALL
GAST_HUCK
****
This file was generated by PARSER (from files_GN.cpp)

@<TRIPOS>ATOM
      1 C1         -0.3616   42.3342   12.7455 C.3         1 CBI       0.1884
      2 C2         -1.5761   43.1828   13.2264 C.3         1 CBI       0.1341
      3 C3         -2.9149   42.5866   12.7094 C.3         1 CBI       0.1141
      4 C4         -2.8865   42.3539   11.1800 C.3         1 CBI       0.1119
      5 C5         -1.6265   41.5306   10.7896 C.3         1 CBI       0.1130
      6 C6         -1.4119   41.4175    9.2560 C.3         1 CBI       0.0730
      7 O2         -1.6360   43.2175   14.6521 O.3         1 CBI      -0.3841
      8 O3         -4.0035   43.4391   13.0578 O.3         1 CBI      -0.3864
      9 O4         -4.0800   41.6913   10.7636 O.3         1 CBI      -0.3865
     10 O5         -0.4355   42.1633   11.3162 O.3         1 CBI      -0.3405
     11 O6         -2.4675   40.7034    8.6103 O.3         1 CBI      -0.3924
     12 C1'         3.6328   39.8338   13.6572 C.3         1 CBI       0.1854
     13 C2'         3.5246   40.8745   14.8023 C.3         1 CBI       0.1339
     14 C3'         2.2329   41.7225   14.6200 C.3         1 CBI       0.1144
     15 C4'         2.1249   42.3282   13.1885 C.3         1 CBI       0.1184
     16 C5'         2.4582   41.2851   12.0712 C.3         1 CBI       0.1134
     17 C6'         2.7669   41.9245   10.6879 C.3         1 CBI       0.0730
     18 O1'         4.8662   39.1321   13.7627 O.3         1 CBI      -0.3649
     19 O2'         3.5587   40.2055   16.0692 O.3         1 CBI      -0.3841
     20 O3'         2.2302   42.8017   15.5600 O.3         1 CBI      -0.3864
     21 O4'         0.8693   43.0312   13.0435 O.3         1 CBI      -0.3401
     22 O5'         3.6230   40.4882   12.3771 O.3         1 CBI      -0.3407
     23 O6'         1.9474   43.0485   10.3606 O.3         1 CBI      -0.3924
     24 H1         -0.3908   41.3603   13.2415 H           1 CBI       0.0938
     25 H2         -1.4663   44.2062   12.8476 H           1 CBI       0.0671
     26 H3         -3.0823   41.6283   13.2057 H           1 CBI       0.0648
     27 H4         -2.8486   43.3213   10.6749 H           1 CBI       0.0647
     28 H5         -1.6970   40.5136   11.1930 H           1 CBI       0.0647
     29 H6         -0.4670   40.8958    9.0528 H           1 CBI       0.0584
     30 H7         -1.3487   42.4162    8.8113 H           1 CBI       0.0584
     31 H8         -0.9058   43.8010   14.9518 H           1 CBI       0.2101
     32 H9         -3.8326   44.2943   12.6109 H           1 CBI       0.2100
     33 H10        -4.0878   40.8299   11.2355 H           1 CBI       0.2100
     34 H11        -2.4444   39.8037    9.0042 H           1 CBI       0.2095
     35 H12         2.8123   39.1083   13.7237 H           1 CBI       0.0935
     36 H13         4.3973   41.5363   14.7656 H           1 CBI       0.0671
     37 H14         1.3742   41.0835   14.8365 H           1 CBI       0.0648
     38 H15         2.8992   43.0958   13.1327 H           1 CBI       0.0651
     39 H16         1.6186   40.6042   11.9473 H           1 CBI       0.0647
     40 H17         2.6258   41.1701    9.8974 H           1 CBI       0.0584
     41 H18         3.8130   42.2699   10.6412 H           1 CBI       0.0584
     42 H19         4.8435   38.4771   13.0303 H           1 CBI       0.2126
     43 H20         2.7119   39.7127   16.1277 H           1 CBI       0.2101
     44 H21         2.5179   42.4256   16.4226 H           1 CBI       0.2100
     45 H22         2.2187   43.3040    9.4445 H           1 CBI       0.2095
@<TRIPOS>BOND
     1     1    21   1
     2     1    10   1
     3     1     2   1
     4     2     7   1
     5     2     3   1
     6     3     8   1
     7     3     4   1
     8     4     9   1
     9     4     5   1
    10     5    10   1
    11     5     6   1
    12     6    11   1
    13    21    15   1
    14    15    16   1
    15    15    14   1
    16    14    20   1
    17    14    13   1
    18    13    19   1
    19    13    12   1
    20    12    22   1
    21    12    18   1
    22    22    16   1
    23    16    17   1
    24    17    23   1
    25     1    24   1
    26     2    25   1
    27     3    26   1
    28     4    27   1
    29     5    28   1
    30     6    29   1
    31     6    30   1
    32     7    31   1
    33     8    32   1
    34     9    33   1
    35    11    34   1
    36    12    35   1
    37    13    36   1
    38    14    37   1
    39    15    38   1
    40    16    39   1
    41    17    40   1
    42    17    41   1
    43    18    42   1
    44    19    43   1
    45    20    44   1
    46    23    45   1
@<TRIPOS>SUBSTRUCTURE
     1  CBI      1

