@<TRIPOS>MOLECULE
1qi0_ligand_049
    45    46
SMALL
GAST_HUCK
****
This file was generated by PARSER (from files_GN.cpp)

@<TRIPOS>ATOM
      1 C1         -2.4191   43.5614   11.3709 C.3         1 CBI       0.1884
      2 C2         -3.8477   43.7406   11.9468 C.3         1 CBI       0.1341
      3 C3         -4.8864   43.0804   10.9983 C.3         1 CBI       0.1141
      4 C4         -4.7398   43.6196    9.5508 C.3         1 CBI       0.1119
      5 C5         -3.2566   43.5097    9.0772 C.3         1 CBI       0.1130
      6 C6         -3.0093   44.1931    7.7074 C.3         1 CBI       0.0730
      7 O2         -3.9420   43.1681   13.2462 O.3         1 CBI      -0.3841
      8 O3         -6.2155   43.2906   11.4848 O.3         1 CBI      -0.3864
      9 O4         -5.6076   42.9024    8.6744 O.3         1 CBI      -0.3865
     10 O5         -2.3460   44.0994   10.0348 O.3         1 CBI      -0.3405
     11 O6         -2.7495   45.5918    7.8347 O.3         1 CBI      -0.3924
     12 C1'         1.6488   41.4658   12.8170 C.3         1 CBI       0.1854
     13 C2'         0.7382   41.7570   14.0414 C.3         1 CBI       0.1339
     14 C3'        -0.5620   42.4585   13.5616 C.3         1 CBI       0.1144
     15 C4'        -0.2558   43.7057   12.6761 C.3         1 CBI       0.1184
     16 C5'         0.8039   43.3651   11.5621 C.3         1 CBI       0.1134
     17 C6'         1.3250   44.6407   10.8528 C.3         1 CBI       0.0730
     18 O1'         2.8728   40.8606   13.2359 O.3         1 CBI      -0.3649
     19 O2'         0.4515   40.5532   14.7551 O.3         1 CBI      -0.3841
     20 O3'        -1.4018   42.8249   14.6543 O.3         1 CBI      -0.3864
     21 O4'        -1.4826   44.3182   12.1778 O.3         1 CBI      -0.3401
     22 O5'         1.9472   42.6875   12.1196 O.3         1 CBI      -0.3407
     23 O6'         2.3333   44.3148    9.9005 O.3         1 CBI      -0.3924
     24 H1         -2.1849   42.4921   11.3493 H           1 CBI       0.0938
     25 H2         -4.0659   44.8128   12.0286 H           1 CBI       0.0671
     26 H3         -4.7151   42.0018   10.9870 H           1 CBI       0.0648
     27 H4         -5.0514   44.6671    9.5317 H           1 CBI       0.0647
     28 H5         -3.0060   42.4442    8.9628 H           1 CBI       0.0647
     29 H6         -3.8646   44.0451    7.0450 H           1 CBI       0.0584
     30 H7         -2.1379   43.7370    7.2300 H           1 CBI       0.0584
     31 H8         -3.5320   43.8191   13.8439 H           1 CBI       0.2101
     32 H9         -6.3506   44.2629   11.4916 H           1 CBI       0.2100
     33 H10        -5.2923   41.9745    8.7021 H           1 CBI       0.2100
     34 H11        -3.1724   45.8649    8.6746 H           1 CBI       0.2095
     35 H12         1.1579   40.7584   12.1409 H           1 CBI       0.0935
     36 H13         1.2737   42.4267   14.7350 H           1 CBI       0.0671
     37 H14        -1.1202   41.7329   12.9716 H           1 CBI       0.0648
     38 H15         0.1967   44.4560   13.3354 H           1 CBI       0.0651
     39 H16         0.3537   42.7175   10.8027 H           1 CBI       0.0647
     40 H17         1.7446   45.3361   11.5825 H           1 CBI       0.0584
     41 H18         0.5151   45.1431   10.3195 H           1 CBI       0.0584
     42 H19         3.5753   41.5355   13.1209 H           1 CBI       0.2126
     43 H20        -0.2953   40.1330   14.2712 H           1 CBI       0.2101
     44 H21        -0.8787   43.4555   15.2145 H           1 CBI       0.2100
     45 H22         3.1357   44.1310   10.4345 H           1 CBI       0.2095
@<TRIPOS>BOND
     1     1    21   1
     2     1    10   1
     3     1     2   1
     4     2     7   1
     5     2     3   1
     6     3     8   1
     7     3     4   1
     8     4     9   1
     9     4     5   1
    10     5    10   1
    11     5     6   1
    12     6    11   1
    13    21    15   1
    14    15    16   1
    15    15    14   1
    16    14    20   1
    17    14    13   1
    18    13    19   1
    19    13    12   1
    20    12    22   1
    21    12    18   1
    22    22    16   1
    23    16    17   1
    24    17    23   1
    25     1    24   1
    26     2    25   1
    27     3    26   1
    28     4    27   1
    29     5    28   1
    30     6    29   1
    31     6    30   1
    32     7    31   1
    33     8    32   1
    34     9    33   1
    35    11    34   1
    36    12    35   1
    37    13    36   1
    38    14    37   1
    39    15    38   1
    40    16    39   1
    41    17    40   1
    42    17    41   1
    43    18    42   1
    44    19    43   1
    45    20    44   1
    46    23    45   1
@<TRIPOS>SUBSTRUCTURE
     1  CBI      1

