@<TRIPOS>MOLECULE
1qi0_ligand_034
    45    46
SMALL
GAST_HUCK
****
This file was generated by PARSER (from files_GN.cpp)

@<TRIPOS>ATOM
      1 C1          2.0630   38.7667   13.4017 C.3         1 CBI       0.1884
      2 C2          2.0197   40.2960   13.6560 C.3         1 CBI       0.1341
      3 C3          2.7897   40.6651   14.9567 C.3         1 CBI       0.1141
      4 C4          2.3020   39.8059   16.1565 C.3         1 CBI       0.1119
      5 C5          2.2710   38.2876   15.8015 C.3         1 CBI       0.1130
      6 C6          1.5452   37.4321   16.8717 C.3         1 CBI       0.0730
      7 O2          2.5384   41.0152   12.5333 O.3         1 CBI      -0.3841
      8 O3          2.6277   42.0593   15.2136 O.3         1 CBI      -0.3864
      9 O4          3.1280   40.0446   17.2960 O.3         1 CBI      -0.3865
     10 O5          1.5582   38.0719   14.5621 O.3         1 CBI      -0.3405
     11 O6          2.3088   37.2711   18.0659 O.3         1 CBI      -0.3924
     12 C1'         0.4348   35.4777    9.3917 C.3         1 CBI       0.1854
     13 C2'         0.5001   34.9768   10.8579 C.3         1 CBI       0.1339
     14 C3'         0.3944   36.1733   11.8462 C.3         1 CBI       0.1144
     15 C4'         1.4252   37.2866   11.4969 C.3         1 CBI       0.1184
     16 C5'         1.2857   37.6723    9.9932 C.3         1 CBI       0.1134
     17 C6'         2.3217   38.7223    9.5182 C.3         1 CBI       0.0730
     18 O1'         0.6995   34.4038    8.4976 O.3         1 CBI      -0.3649
     19 O2'        -0.5485   34.0325   11.0736 O.3         1 CBI      -0.3841
     20 O3'         0.6049   35.7042   13.1736 O.3         1 CBI      -0.3864
     21 O4'         1.2132   38.4894   12.2718 O.3         1 CBI      -0.3401
     22 O5'         1.4164   36.5066    9.1495 O.3         1 CBI      -0.3407
     23 O6'         3.6180   38.1715    9.3136 O.3         1 CBI      -0.3924
     24 H1          3.0993   38.4730   13.1943 H           1 CBI       0.0938
     25 H2          0.9689   40.5968   13.7736 H           1 CBI       0.0671
     26 H3          3.8585   40.4846   14.7979 H           1 CBI       0.0648
     27 H4          1.2870   40.1235   16.4053 H           1 CBI       0.0647
     28 H5          3.2942   37.9176   15.6942 H           1 CBI       0.0647
     29 H6          1.3272   36.4378   16.4731 H           1 CBI       0.0584
     30 H7          0.5928   37.8979   17.1368 H           1 CBI       0.0584
     31 H8          3.4591   41.2624   12.7716 H           1 CBI       0.2101
     32 H9          1.6952   42.1647   15.5033 H           1 CBI       0.2100
     33 H10         3.2762   41.0139   17.3153 H           1 CBI       0.2100
     34 H11         2.6439   36.3470   18.0328 H           1 CBI       0.2095
     35 H12        -0.5690   35.8634    9.1653 H           1 CBI       0.0935
     36 H13         1.4574   34.4683   11.0078 H           1 CBI       0.0671
     37 H14        -0.6145   36.5931   11.7958 H           1 CBI       0.0648
     38 H15         2.4280   36.8798   11.6530 H           1 CBI       0.0651
     39 H16         0.2914   38.1149    9.8354 H           1 CBI       0.0647
     40 H17         2.3923   39.5415   10.2328 H           1 CBI       0.0584
     41 H18         1.9916   39.1434    8.5657 H           1 CBI       0.0584
     42 H19         0.8078   34.8240    7.6172 H           1 CBI       0.2126
     43 H20        -0.2281   33.4489   11.7949 H           1 CBI       0.2101
     44 H21        -0.0968   35.0386   13.3397 H           1 CBI       0.2100
     45 H22         3.9272   37.8795   10.1958 H           1 CBI       0.2095
@<TRIPOS>BOND
     1     1    21   1
     2     1    10   1
     3     1     2   1
     4     2     7   1
     5     2     3   1
     6     3     8   1
     7     3     4   1
     8     4     9   1
     9     4     5   1
    10     5    10   1
    11     5     6   1
    12     6    11   1
    13    21    15   1
    14    15    16   1
    15    15    14   1
    16    14    20   1
    17    14    13   1
    18    13    19   1
    19    13    12   1
    20    12    22   1
    21    12    18   1
    22    22    16   1
    23    16    17   1
    24    17    23   1
    25     1    24   1
    26     2    25   1
    27     3    26   1
    28     4    27   1
    29     5    28   1
    30     6    29   1
    31     6    30   1
    32     7    31   1
    33     8    32   1
    34     9    33   1
    35    11    34   1
    36    12    35   1
    37    13    36   1
    38    14    37   1
    39    15    38   1
    40    16    39   1
    41    17    40   1
    42    17    41   1
    43    18    42   1
    44    19    43   1
    45    20    44   1
    46    23    45   1
@<TRIPOS>SUBSTRUCTURE
     1  CBI      1

