@<TRIPOS>MOLECULE
1qi0_ligand_037
    45    46
SMALL
GAST_HUCK
****
This file was generated by PARSER (from files_GN.cpp)

@<TRIPOS>ATOM
      1 C1          0.5520   41.4984   11.2448 C.3         1 CBI       0.1884
      2 C2          0.0783   41.9495   12.6566 C.3         1 CBI       0.1341
      3 C3         -1.2504   41.2422   13.0292 C.3         1 CBI       0.1141
      4 C4         -2.3150   41.4617   11.9210 C.3         1 CBI       0.1119
      5 C5         -1.7464   41.0148   10.5356 C.3         1 CBI       0.1130
      6 C6         -2.7099   41.3474    9.3686 C.3         1 CBI       0.0730
      7 O2          1.0903   41.6730   13.6281 O.3         1 CBI      -0.3841
      8 O3         -1.7216   41.7441   14.2784 O.3         1 CBI      -0.3864
      9 O4         -3.5065   40.7402   12.2387 O.3         1 CBI      -0.3865
     10 O5         -0.4826   41.6621   10.2435 O.3         1 CBI      -0.3405
     11 O6         -2.7425   42.7470    9.0747 O.3         1 CBI      -0.3924
     12 C1'         3.2971   45.6632    9.0234 C.3         1 CBI       0.1854
     13 C2'         2.3318   45.9110   10.2112 C.3         1 CBI       0.1339
     14 C3'         2.1504   44.6193   11.0546 C.3         1 CBI       0.1144
     15 C4'         1.7709   43.4082   10.1500 C.3         1 CBI       0.1184
     16 C5'         2.8298   43.2747    9.0121 C.3         1 CBI       0.1134
     17 C6'         2.5014   42.1352    8.0156 C.3         1 CBI       0.0730
     18 O1'         3.2707   46.7727    8.1346 O.3         1 CBI      -0.3649
     19 O2'         2.8148   46.9581   11.0545 O.3         1 CBI      -0.3841
     20 O3'         1.1426   44.8522   12.0420 O.3         1 CBI      -0.3864
     21 O4'         1.7877   42.1730   10.9014 O.3         1 CBI      -0.3401
     22 O5'         2.9185   44.5019    8.2584 O.3         1 CBI      -0.3407
     23 O6'         3.4439   42.1525    6.9433 O.3         1 CBI      -0.3924
     24 H1          0.8110   40.4318   11.2983 H           1 CBI       0.0938
     25 H2         -0.0913   43.0280   12.6386 H           1 CBI       0.0671
     26 H3         -1.0669   40.1683   13.1481 H           1 CBI       0.0648
     27 H4         -2.5664   42.5230   11.8837 H           1 CBI       0.0647
     28 H5         -1.5959   39.9275   10.5430 H           1 CBI       0.0647
     29 H6         -3.7289   41.0283    9.6171 H           1 CBI       0.0584
     30 H7         -2.3989   40.8099    8.4658 H           1 CBI       0.0584
     31 H8          1.1847   40.6953   13.6279 H           1 CBI       0.2101
     32 H9         -0.9923   41.5799   14.9151 H           1 CBI       0.2100
     33 H10        -3.2472   39.7949   12.2462 H           1 CBI       0.2100
     34 H11        -1.8502   42.9555    8.7238 H           1 CBI       0.2095
     35 H12         4.3198   45.5526    9.3882 H           1 CBI       0.0935
     36 H13         1.3533   46.2082    9.8122 H           1 CBI       0.0671
     37 H14         3.0831   44.3916   11.5793 H           1 CBI       0.0648
     38 H15         0.7960   43.6224    9.6947 H           1 CBI       0.0651
     39 H16         3.8047   43.0471    9.4587 H           1 CBI       0.0647
     40 H17         1.4912   42.2672    7.6113 H           1 CBI       0.0584
     41 H18         2.5580   41.1639    8.5147 H           1 CBI       0.0584
     42 H19         2.4168   46.6964    7.6568 H           1 CBI       0.2126
     43 H20         2.5956   47.7773   10.5663 H           1 CBI       0.2101
     44 H21         0.5392   45.5167   11.6447 H           1 CBI       0.2100
     45 H22         3.1442   41.4476    6.3329 H           1 CBI       0.2095
@<TRIPOS>BOND
     1     1    21   1
     2     1    10   1
     3     1     2   1
     4     2     7   1
     5     2     3   1
     6     3     8   1
     7     3     4   1
     8     4     9   1
     9     4     5   1
    10     5    10   1
    11     5     6   1
    12     6    11   1
    13    21    15   1
    14    15    16   1
    15    15    14   1
    16    14    20   1
    17    14    13   1
    18    13    19   1
    19    13    12   1
    20    12    22   1
    21    12    18   1
    22    22    16   1
    23    16    17   1
    24    17    23   1
    25     1    24   1
    26     2    25   1
    27     3    26   1
    28     4    27   1
    29     5    28   1
    30     6    29   1
    31     6    30   1
    32     7    31   1
    33     8    32   1
    34     9    33   1
    35    11    34   1
    36    12    35   1
    37    13    36   1
    38    14    37   1
    39    15    38   1
    40    16    39   1
    41    17    40   1
    42    17    41   1
    43    18    42   1
    44    19    43   1
    45    20    44   1
    46    23    45   1
@<TRIPOS>SUBSTRUCTURE
     1  CBI      1

