@<TRIPOS>MOLECULE
1qi0_ligand_019
    45    46
SMALL
GAST_HUCK
****
This file was generated by PARSER (from files_GN.cpp)

@<TRIPOS>ATOM
      1 C1          1.5747   38.1749   14.2720 C.3         1 CBI       0.1884
      2 C2          1.4227   36.8973   13.4028 C.3         1 CBI       0.1341
      3 C3          0.1222   36.1500   13.7917 C.3         1 CBI       0.1141
      4 C4          0.0981   35.8479   15.3113 C.3         1 CBI       0.1119
      5 C5          0.3517   37.1528   16.1390 C.3         1 CBI       0.1130
      6 C6          0.4650   36.8795   17.6676 C.3         1 CBI       0.0730
      7 O2          1.3904   37.2156   12.0195 O.3         1 CBI      -0.3841
      8 O3         -0.0163   34.9422   13.0440 O.3         1 CBI      -0.3864
      9 O4         -1.1553   35.2594   15.6652 O.3         1 CBI      -0.3865
     10 O5          1.5462   37.8338   15.6744 O.3         1 CBI      -0.3405
     11 O6          1.7874   37.0677   18.1851 O.3         1 CBI      -0.3924
     12 C1'         1.6706   42.4625   12.3475 C.3         1 CBI       0.1854
     13 C2'         2.4285   41.5373   11.3664 C.3         1 CBI       0.1339
     14 C3'         2.5119   40.1008   11.9477 C.3         1 CBI       0.1144
     15 C4'         3.0140   40.0769   13.4277 C.3         1 CBI       0.1184
     16 C5'         2.3977   41.2264   14.3106 C.3         1 CBI       0.1134
     17 C6'         3.2296   41.4906   15.6020 C.3         1 CBI       0.0730
     18 O1'         1.6443   43.7938   11.8470 O.3         1 CBI      -0.3649
     19 O2'         1.7641   41.5232   10.1062 O.3         1 CBI      -0.3841
     20 O3'         3.3926   39.3334   11.1253 O.3         1 CBI      -0.3864
     21 O4'         2.8705   38.7524   14.0125 O.3         1 CBI      -0.3401
     22 O5'         2.3569   42.4978   13.6100 O.3         1 CBI      -0.3407
     23 O6'         3.9253   40.3419   16.1051 O.3         1 CBI      -0.3924
     24 H1          0.7699   38.8775   14.0369 H           1 CBI       0.0938
     25 H2          2.2737   36.2413   13.5862 H           1 CBI       0.0671
     26 H3         -0.7350   36.7839   13.5428 H           1 CBI       0.0648
     27 H4          0.8843   35.1196   15.5483 H           1 CBI       0.0647
     28 H5         -0.5065   37.8217   15.9900 H           1 CBI       0.0647
     29 H6          0.1426   35.8596   17.9191 H           1 CBI       0.0584
     30 H7         -0.1927   37.5644   18.2125 H           1 CBI       0.0584
     31 H8          2.3011   37.0404   11.7074 H           1 CBI       0.2101
     32 H9          0.7309   34.3743   13.3225 H           1 CBI       0.2100
     33 H10        -1.8234   35.9505   15.4656 H           1 CBI       0.2100
     34 H11         2.2754   36.2550   17.9319 H           1 CBI       0.2095
     35 H12         0.6366   42.1249   12.4635 H           1 CBI       0.0935
     36 H13         3.4365   41.9291   11.2123 H           1 CBI       0.0671
     37 H14         1.5271   39.6420   11.8900 H           1 CBI       0.0648
     38 H15         4.0974   40.2669   13.3833 H           1 CBI       0.0651
     39 H16         1.3819   40.9528   14.6138 H           1 CBI       0.0647
     40 H17         2.5537   41.8577   16.3896 H           1 CBI       0.0584
     41 H18         3.9822   42.2720   15.4034 H           1 CBI       0.0584
     42 H19         1.0538   43.7727   11.0601 H           1 CBI       0.2126
     43 H20         2.3759   41.0737    9.4850 H           1 CBI       0.2101
     44 H21         3.7030   38.5800   11.6718 H           1 CBI       0.2100
     45 H22         3.2118   39.7200   16.3703 H           1 CBI       0.2095
@<TRIPOS>BOND
     1     1    21   1
     2     1    10   1
     3     1     2   1
     4     2     7   1
     5     2     3   1
     6     3     8   1
     7     3     4   1
     8     4     9   1
     9     4     5   1
    10     5    10   1
    11     5     6   1
    12     6    11   1
    13    21    15   1
    14    15    16   1
    15    15    14   1
    16    14    20   1
    17    14    13   1
    18    13    19   1
    19    13    12   1
    20    12    22   1
    21    12    18   1
    22    22    16   1
    23    16    17   1
    24    17    23   1
    25     1    24   1
    26     2    25   1
    27     3    26   1
    28     4    27   1
    29     5    28   1
    30     6    29   1
    31     6    30   1
    32     7    31   1
    33     8    32   1
    34     9    33   1
    35    11    34   1
    36    12    35   1
    37    13    36   1
    38    14    37   1
    39    15    38   1
    40    16    39   1
    41    17    40   1
    42    17    41   1
    43    18    42   1
    44    19    43   1
    45    20    44   1
    46    23    45   1
@<TRIPOS>SUBSTRUCTURE
     1  CBI      1

