@<TRIPOS>MOLECULE
1qi0_ligand_012
    45    46
SMALL
GAST_HUCK
****
This file was generated by PARSER (from files_GN.cpp)

@<TRIPOS>ATOM
      1 C1          0.9133   41.9084   13.5648 C.3         1 CBI       0.1884
      2 C2          0.0232   43.1532   13.8295 C.3         1 CBI       0.1341
      3 C3         -0.3701   43.8073   12.4777 C.3         1 CBI       0.1141
      4 C4          0.9013   44.1350   11.6443 C.3         1 CBI       0.1119
      5 C5          1.7993   42.8668   11.5084 C.3         1 CBI       0.1130
      6 C6          3.1256   43.1529   10.7582 C.3         1 CBI       0.0730
      7 O2         -1.1466   42.8006   14.5697 O.3         1 CBI      -0.3841
      8 O3         -1.1395   44.9892   12.6906 O.3         1 CBI      -0.3864
      9 O4          0.5140   44.6185   10.3582 O.3         1 CBI      -0.3865
     10 O5          2.0885   42.3106   12.8210 O.3         1 CBI      -0.3405
     11 O6          2.8730   43.4621    9.3906 O.3         1 CBI      -0.3924
     12 C1'         0.8709   37.3892   16.4930 C.3         1 CBI       0.1854
     13 C2'         2.2867   38.0192   16.5338 C.3         1 CBI       0.1339
     14 C3'         2.2058   39.5432   16.2344 C.3         1 CBI       0.1144
     15 C4'         1.3979   39.8571   14.9298 C.3         1 CBI       0.1184
     16 C5'         0.0234   39.0902   14.9811 C.3         1 CBI       0.1134
     17 C6'        -0.8319   39.1537   13.6885 C.3         1 CBI       0.0730
     18 O1'         0.9179   35.9684   16.5873 O.3         1 CBI      -0.3649
     19 O2'         2.8599   37.7665   17.8178 O.3         1 CBI      -0.3841
     20 O3'         3.5347   40.0632   16.1579 O.3         1 CBI      -0.3864
     21 O4'         1.2650   41.3023   14.8313 O.3         1 CBI      -0.3401
     22 O5'         0.2503   37.6891   15.2374 O.3         1 CBI      -0.3407
     23 O6'        -1.8097   38.1071   13.6340 O.3         1 CBI      -0.3924
     24 H1          0.3456   41.1939   12.9526 H           1 CBI       0.0938
     25 H2          0.5838   43.8829   14.4232 H           1 CBI       0.0671
     26 H3         -0.9915   43.1068   11.9160 H           1 CBI       0.0648
     27 H4          1.4661   44.9276   12.1490 H           1 CBI       0.0647
     28 H5          1.2617   42.1137   10.9211 H           1 CBI       0.0647
     29 H6          3.7560   42.2663   10.7925 H           1 CBI       0.0584
     30 H7          3.6581   43.9824   11.2229 H           1 CBI       0.0584
     31 H8         -0.8156   42.6475   15.4766 H           1 CBI       0.2101
     32 H9         -1.9955   44.6717   13.0478 H           1 CBI       0.2100
     33 H10         0.3231   45.5708   10.4873 H           1 CBI       0.2100
     34 H11         3.7541   43.5548    8.9728 H           1 CBI       0.2095
     35 H12         0.2605   37.7590   17.3239 H           1 CBI       0.0935
     36 H13         2.9033   37.5373   15.7702 H           1 CBI       0.0671
     37 H14         1.7163   40.0285   17.0817 H           1 CBI       0.0648
     38 H15         1.9829   39.4842   14.0831 H           1 CBI       0.0651
     39 H16        -0.5910   39.4968   15.7905 H           1 CBI       0.0647
     40 H17        -0.1993   39.0782   12.8051 H           1 CBI       0.0584
     41 H18        -1.3845   40.0907   13.6520 H           1 CBI       0.0584
     42 H19         1.6184   35.7539   17.2370 H           1 CBI       0.2126
     43 H20         3.7738   37.4465   17.6580 H           1 CBI       0.2101
     44 H21         3.4848   40.9802   16.5057 H           1 CBI       0.2100
     45 H22        -1.3017   37.2732   13.5557 H           1 CBI       0.2095
@<TRIPOS>BOND
     1     1    21   1
     2     1    10   1
     3     1     2   1
     4     2     7   1
     5     2     3   1
     6     3     8   1
     7     3     4   1
     8     4     9   1
     9     4     5   1
    10     5    10   1
    11     5     6   1
    12     6    11   1
    13    21    15   1
    14    15    16   1
    15    15    14   1
    16    14    20   1
    17    14    13   1
    18    13    19   1
    19    13    12   1
    20    12    22   1
    21    12    18   1
    22    22    16   1
    23    16    17   1
    24    17    23   1
    25     1    24   1
    26     2    25   1
    27     3    26   1
    28     4    27   1
    29     5    28   1
    30     6    29   1
    31     6    30   1
    32     7    31   1
    33     8    32   1
    34     9    33   1
    35    11    34   1
    36    12    35   1
    37    13    36   1
    38    14    37   1
    39    15    38   1
    40    16    39   1
    41    17    40   1
    42    17    41   1
    43    18    42   1
    44    19    43   1
    45    20    44   1
    46    23    45   1
@<TRIPOS>SUBSTRUCTURE
     1  CBI      1

