@<TRIPOS>MOLECULE
1qi0_ligand_057
    45    46
SMALL
GAST_HUCK
****
This file was generated by PARSER (from files_GN.cpp)

@<TRIPOS>ATOM
      1 C1          1.6208   41.7208    9.3834 C.3         1 CBI       0.1884
      2 C2          2.4074   42.1401    8.1127 C.3         1 CBI       0.1341
      3 C3          1.5696   41.8338    6.8353 C.3         1 CBI       0.1141
      4 C4          1.0724   40.3575    6.8270 C.3         1 CBI       0.1119
      5 C5          0.3580   40.0115    8.1705 C.3         1 CBI       0.1130
      6 C6         -0.0078   38.5108    8.3059 C.3         1 CBI       0.0730
      7 O2          2.7455   43.5269    8.2078 O.3         1 CBI      -0.3841
      8 O3          2.3118   42.0671    5.6338 O.3         1 CBI      -0.3864
      9 O4          0.2092   40.1364    5.7095 O.3         1 CBI      -0.3865
     10 O5          1.2217   40.3338    9.2823 O.3         1 CBI      -0.3405
     11 O6         -0.9679   38.1091    7.3330 O.3         1 CBI      -0.3924
     12 C1'         2.6473   41.1980   14.6672 C.3         1 CBI       0.1854
     13 C2'         2.4246   39.9483   13.7759 C.3         1 CBI       0.1339
     14 C3'         2.7898   40.2906   12.3069 C.3         1 CBI       0.1144
     15 C4'         2.0100   41.5525   11.8267 C.3         1 CBI       0.1184
     16 C5'         2.2261   42.7359   12.8292 C.3         1 CBI       0.1134
     17 C6'         1.4055   44.0076   12.4562 C.3         1 CBI       0.0730
     18 O1'         2.2444   40.9098   16.0027 O.3         1 CBI      -0.3649
     19 O2'         3.2165   38.8682   14.2750 O.3         1 CBI      -0.3841
     20 O3'         2.5040   39.1798   11.4558 O.3         1 CBI      -0.3864
     21 O4'         2.4871   41.9300   10.5166 O.3         1 CBI      -0.3401
     22 O5'         1.8828   42.3214   14.1746 O.3         1 CBI      -0.3407
     23 O6'         2.1658   44.9019   11.6397 O.3         1 CBI      -0.3924
     24 H1          0.7364   42.3603    9.4960 H           1 CBI       0.0938
     25 H2          3.3389   41.5651    8.0776 H           1 CBI       0.0671
     26 H3          0.7051   42.5052    6.8172 H           1 CBI       0.0648
     27 H4          1.9411   39.7038    6.7054 H           1 CBI       0.0647
     28 H5         -0.5662   40.5946    8.2493 H           1 CBI       0.0647
     29 H6         -0.4321   38.3260    9.2950 H           1 CBI       0.0584
     30 H7          0.8855   37.8886    8.1921 H           1 CBI       0.0584
     31 H8          3.5742   43.6459    7.6959 H           1 CBI       0.2101
     32 H9          3.1851   42.4111    5.9109 H           1 CBI       0.2100
     33 H10        -0.5658   40.7218    5.8488 H           1 CBI       0.2100
     34 H11        -1.7926   38.5887    7.5650 H           1 CBI       0.2095
     35 H12         3.7144   41.4531   14.6915 H           1 CBI       0.0935
     36 H13         1.3709   39.6610   13.8254 H           1 CBI       0.0671
     37 H14         3.8625   40.4843   12.2396 H           1 CBI       0.0648
     38 H15         0.9388   41.3090   11.8205 H           1 CBI       0.0651
     39 H16         3.2807   43.0295   12.8277 H           1 CBI       0.0647
     40 H17         1.1042   44.5505   13.3567 H           1 CBI       0.0584
     41 H18         0.4941   43.7447   11.9158 H           1 CBI       0.0584
     42 H19         2.7540   41.5295   16.5693 H           1 CBI       0.2126
     43 H20         2.8332   38.0532   13.8909 H           1 CBI       0.2101
     44 H21         3.1739   38.4952   11.6708 H           1 CBI       0.2100
     45 H22         2.8914   45.2238   12.2186 H           1 CBI       0.2095
@<TRIPOS>BOND
     1     1    21   1
     2     1    10   1
     3     1     2   1
     4     2     7   1
     5     2     3   1
     6     3     8   1
     7     3     4   1
     8     4     9   1
     9     4     5   1
    10     5    10   1
    11     5     6   1
    12     6    11   1
    13    21    15   1
    14    15    16   1
    15    15    14   1
    16    14    20   1
    17    14    13   1
    18    13    19   1
    19    13    12   1
    20    12    22   1
    21    12    18   1
    22    22    16   1
    23    16    17   1
    24    17    23   1
    25     1    24   1
    26     2    25   1
    27     3    26   1
    28     4    27   1
    29     5    28   1
    30     6    29   1
    31     6    30   1
    32     7    31   1
    33     8    32   1
    34     9    33   1
    35    11    34   1
    36    12    35   1
    37    13    36   1
    38    14    37   1
    39    15    38   1
    40    16    39   1
    41    17    40   1
    42    17    41   1
    43    18    42   1
    44    19    43   1
    45    20    44   1
    46    23    45   1
@<TRIPOS>SUBSTRUCTURE
     1  CBI      1

