@<TRIPOS>MOLECULE
1qi0_ligand_042
    45    46
SMALL
GAST_HUCK
****
This file was generated by PARSER (from files_GN.cpp)

@<TRIPOS>ATOM
      1 C1         -0.4206   42.5438   12.1826 C.3         1 CBI       0.1884
      2 C2          0.0254   41.4084   13.1399 C.3         1 CBI       0.1341
      3 C3          1.1257   41.9149   14.1101 C.3         1 CBI       0.1141
      4 C4          2.2882   42.5812   13.3281 C.3         1 CBI       0.1119
      5 C5          1.7564   43.6591   12.3342 C.3         1 CBI       0.1130
      6 C6          2.8532   44.2084   11.3821 C.3         1 CBI       0.0730
      7 O2         -1.0974   40.8887   13.8568 O.3         1 CBI      -0.3841
      8 O3          1.6355   40.8231   14.8788 O.3         1 CBI      -0.3864
      9 O4          3.1804   43.1633   14.2771 O.3         1 CBI      -0.3865
     10 O5          0.7279   43.0906   11.5002 O.3         1 CBI      -0.3405
     11 O6          4.1407   44.3037   11.9970 O.3         1 CBI      -0.3924
     12 C1'        -3.8393   43.1967    8.0426 C.3         1 CBI       0.1854
     13 C2'        -2.3810   42.8221    7.6671 C.3         1 CBI       0.1339
     14 C3'        -1.7055   42.0524    8.8352 C.3         1 CBI       0.1144
     15 C4'        -1.8625   42.8146   10.1802 C.3         1 CBI       0.1184
     16 C5'        -3.3655   43.1428   10.4250 C.3         1 CBI       0.1134
     17 C6'        -3.5993   43.9594   11.7193 C.3         1 CBI       0.0730
     18 O1'        -4.3927   44.0486    7.0401 O.3         1 CBI      -0.3649
     19 O2'        -2.3547   42.0239    6.4863 O.3         1 CBI      -0.3841
     20 O3'        -0.3203   41.8556    8.5334 O.3         1 CBI      -0.3864
     21 O4'        -1.3348   41.9651   11.2264 O.3         1 CBI      -0.3401
     22 O5'        -3.8936   43.8889    9.3112 O.3         1 CBI      -0.3407
     23 O6'        -2.6910   45.0566   11.8316 O.3         1 CBI      -0.3924
     24 H1         -0.9248   43.3250   12.7588 H           1 CBI       0.0938
     25 H2          0.4289   40.5912   12.5313 H           1 CBI       0.0671
     26 H3          0.6923   42.6456   14.7905 H           1 CBI       0.0648
     27 H4          2.8253   41.8023   12.7652 H           1 CBI       0.0647
     28 H5          1.3569   44.5033   12.9033 H           1 CBI       0.0647
     29 H6          2.5705   45.2050   11.0200 H           1 CBI       0.0584
     30 H7          2.9624   43.5428   10.5202 H           1 CBI       0.0584
     31 H8         -0.9672   41.1558   14.7930 H           1 CBI       0.2101
     32 H9          0.8888   40.5401   15.4471 H           1 CBI       0.2100
     33 H10         4.0748   42.8351   14.0193 H           1 CBI       0.2100
     34 H11         4.1497   45.1760   12.4854 H           1 CBI       0.2095
     35 H12        -4.4593   42.2929    8.0844 H           1 CBI       0.0935
     36 H13        -1.8161   43.7363    7.4770 H           1 CBI       0.0671
     37 H14        -2.1735   41.0651    8.9256 H           1 CBI       0.0648
     38 H15        -1.3040   43.7559   10.0889 H           1 CBI       0.0651
     39 H16        -3.9238   42.2132   10.5317 H           1 CBI       0.0647
     40 H17        -3.4843   43.3167   12.5941 H           1 CBI       0.0584
     41 H18        -4.6205   44.3560   11.7306 H           1 CBI       0.0584
     42 H19        -3.7542   44.7848    6.9544 H           1 CBI       0.2126
     43 H20        -2.6984   42.6009    5.7718 H           1 CBI       0.2101
     44 H21         0.0174   41.2675    9.2441 H           1 CBI       0.2100
     45 H22        -2.7364   45.3248   12.7760 H           1 CBI       0.2095
@<TRIPOS>BOND
     1     1    21   1
     2     1    10   1
     3     1     2   1
     4     2     7   1
     5     2     3   1
     6     3     8   1
     7     3     4   1
     8     4     9   1
     9     4     5   1
    10     5    10   1
    11     5     6   1
    12     6    11   1
    13    21    15   1
    14    15    16   1
    15    15    14   1
    16    14    20   1
    17    14    13   1
    18    13    19   1
    19    13    12   1
    20    12    22   1
    21    12    18   1
    22    22    16   1
    23    16    17   1
    24    17    23   1
    25     1    24   1
    26     2    25   1
    27     3    26   1
    28     4    27   1
    29     5    28   1
    30     6    29   1
    31     6    30   1
    32     7    31   1
    33     8    32   1
    34     9    33   1
    35    11    34   1
    36    12    35   1
    37    13    36   1
    38    14    37   1
    39    15    38   1
    40    16    39   1
    41    17    40   1
    42    17    41   1
    43    18    42   1
    44    19    43   1
    45    20    44   1
    46    23    45   1
@<TRIPOS>SUBSTRUCTURE
     1  CBI      1

