@<TRIPOS>MOLECULE
1qi0_ligand_021
    45    46
SMALL
GAST_HUCK
****
This file was generated by PARSER (from files_GN.cpp)

@<TRIPOS>ATOM
      1 C1          1.2713   40.6632   13.1839 C.3         1 CBI       0.1884
      2 C2          2.0539   42.0070   13.0838 C.3         1 CBI       0.1341
      3 C3          1.0500   43.1832   12.9520 C.3         1 CBI       0.1141
      4 C4          0.0582   42.9503   11.7776 C.3         1 CBI       0.1119
      5 C5         -0.6045   41.5375   11.8717 C.3         1 CBI       0.1130
      6 C6         -1.4270   41.1515   10.6185 C.3         1 CBI       0.0730
      7 O2          2.8637   42.1937   14.2399 O.3         1 CBI      -0.3841
      8 O3          1.7577   44.4061   12.7682 O.3         1 CBI      -0.3864
      9 O4         -0.9276   43.9869   11.7811 O.3         1 CBI      -0.3865
     10 O5          0.4116   40.5159   12.0233 O.3         1 CBI      -0.3405
     11 O6         -2.5681   41.9803   10.4418 O.3         1 CBI      -0.3924
     12 C1'         1.6663   37.8055   17.0212 C.3         1 CBI       0.1854
     13 C2'         2.9864   38.5907   16.8224 C.3         1 CBI       0.1339
     14 C3'         2.9026   39.4883   15.5580 C.3         1 CBI       0.1144
     15 C4'         2.4020   38.7015   14.3112 C.3         1 CBI       0.1184
     16 C5'         1.1683   37.7804   14.6470 C.3         1 CBI       0.1134
     17 C6'         0.8653   36.7819   13.4970 C.3         1 CBI       0.0730
     18 O1'         1.7878   36.9671   18.1636 O.3         1 CBI      -0.3649
     19 O2'         3.2483   39.3930   17.9765 O.3         1 CBI      -0.3841
     20 O3'         4.2126   40.0191   15.3255 O.3         1 CBI      -0.3864
     21 O4'         2.2030   39.5571   13.1585 O.3         1 CBI      -0.3401
     22 O5'         1.3994   37.0017   15.8533 O.3         1 CBI      -0.3407
     23 O6'         0.1341   37.4045   12.4313 O.3         1 CBI      -0.3924
     24 H1          0.6602   40.6698   14.0996 H           1 CBI       0.0938
     25 H2          2.6949   41.9675   12.1955 H           1 CBI       0.0671
     26 H3          0.4836   43.2717   13.8794 H           1 CBI       0.0648
     27 H4          0.6124   43.0183   10.8295 H           1 CBI       0.0647
     28 H5         -1.2738   41.5098   12.7403 H           1 CBI       0.0647
     29 H6         -1.7797   40.1223   10.7225 H           1 CBI       0.0584
     30 H7         -0.7997   41.2062    9.7231 H           1 CBI       0.0584
     31 H8          3.7666   42.3465   13.8962 H           1 CBI       0.2101
     32 H9          2.2539   44.3092   11.9300 H           1 CBI       0.2100
     33 H10        -1.4264   43.8671   12.6114 H           1 CBI       0.2100
     34 H11        -2.2183   42.8703   10.2334 H           1 CBI       0.2095
     35 H12         0.8435   38.5013   17.2193 H           1 CBI       0.0935
     36 H13         3.8138   37.8854   16.7121 H           1 CBI       0.0671
     37 H14         2.2245   40.3201   15.7763 H           1 CBI       0.0648
     38 H15         3.2184   38.0375   14.0271 H           1 CBI       0.0651
     39 H16         0.2673   38.4010   14.8016 H           1 CBI       0.0647
     40 H17         0.2586   35.9445   13.8769 H           1 CBI       0.0584
     41 H18         1.7898   36.3638   13.0799 H           1 CBI       0.0584
     42 H19         2.0080   36.0710   17.8238 H           1 CBI       0.2126
     43 H20         2.5465   40.0845   17.9690 H           1 CBI       0.2101
     44 H21         4.1567   40.5365   14.4846 H           1 CBI       0.2100
     45 H22        -0.7421   37.6161   12.8453 H           1 CBI       0.2095
@<TRIPOS>BOND
     1     1    21   1
     2     1    10   1
     3     1     2   1
     4     2     7   1
     5     2     3   1
     6     3     8   1
     7     3     4   1
     8     4     9   1
     9     4     5   1
    10     5    10   1
    11     5     6   1
    12     6    11   1
    13    21    15   1
    14    15    16   1
    15    15    14   1
    16    14    20   1
    17    14    13   1
    18    13    19   1
    19    13    12   1
    20    12    22   1
    21    12    18   1
    22    22    16   1
    23    16    17   1
    24    17    23   1
    25     1    24   1
    26     2    25   1
    27     3    26   1
    28     4    27   1
    29     5    28   1
    30     6    29   1
    31     6    30   1
    32     7    31   1
    33     8    32   1
    34     9    33   1
    35    11    34   1
    36    12    35   1
    37    13    36   1
    38    14    37   1
    39    15    38   1
    40    16    39   1
    41    17    40   1
    42    17    41   1
    43    18    42   1
    44    19    43   1
    45    20    44   1
    46    23    45   1
@<TRIPOS>SUBSTRUCTURE
     1  CBI      1

