@<TRIPOS>MOLECULE
1qi0_ligand_052
    45    46
SMALL
GAST_HUCK
****
This file was generated by PARSER (from files_GN.cpp)

@<TRIPOS>ATOM
      1 C1          0.3796   42.1909    9.8731 C.3         1 CBI       0.1884
      2 C2          1.0228   41.4418   11.0784 C.3         1 CBI       0.1341
      3 C3          1.6861   42.4391   12.0634 C.3         1 CBI       0.1141
      4 C4          2.6773   43.3800   11.3198 C.3         1 CBI       0.1119
      5 C5          1.9688   44.0655   10.1058 C.3         1 CBI       0.1130
      6 C6          2.9459   44.8616    9.2000 C.3         1 CBI       0.0730
      7 O2          0.0421   40.6711   11.7811 O.3         1 CBI      -0.3841
      8 O3          2.3586   41.7482   13.1180 O.3         1 CBI      -0.3864
      9 O4          3.2144   44.3476   12.2245 O.3         1 CBI      -0.3865
     10 O5          1.3346   43.0855    9.2565 O.3         1 CBI      -0.3405
     11 O6          3.6097   43.9841    8.2884 O.3         1 CBI      -0.3924
     12 C1'        -0.8055   40.9385    4.7405 C.3         1 CBI       0.1854
     13 C2'         0.4150   41.8071    5.1580 C.3         1 CBI       0.1339
     14 C3'         0.8102   41.4955    6.6283 C.3         1 CBI       0.1144
     15 C4'        -0.4143   41.6337    7.5823 C.3         1 CBI       0.1184
     16 C5'        -1.5909   40.7583    7.0489 C.3         1 CBI       0.1134
     17 C6'        -2.8903   40.9154    7.8759 C.3         1 CBI       0.0730
     18 O1'        -1.2589   41.3353    3.4483 O.3         1 CBI      -0.3649
     19 O2'         1.5385   41.5907    4.3030 O.3         1 CBI      -0.3841
     20 O3'         1.8835   42.3589    7.0132 O.3         1 CBI      -0.3864
     21 O4'        -0.0500   41.1953    8.9159 O.3         1 CBI      -0.3401
     22 O5'        -1.8961   41.1031    5.6756 O.3         1 CBI      -0.3407
     23 O6'        -3.3934   42.2465    7.8321 O.3         1 CBI      -0.3924
     24 H1         -0.4947   42.7595   10.2222 H           1 CBI       0.0938
     25 H2          1.7881   40.7595   10.6906 H           1 CBI       0.0671
     26 H3          0.9017   43.0488   12.5270 H           1 CBI       0.0648
     27 H4          3.5120   42.7766   10.9469 H           1 CBI       0.0647
     28 H5          1.2118   44.7748   10.4778 H           1 CBI       0.0647
     29 H6          3.6914   45.4008    9.8044 H           1 CBI       0.0584
     30 H7          2.3874   45.6020    8.6138 H           1 CBI       0.0584
     31 H8         -0.2154   39.9531   11.1662 H           1 CBI       0.2101
     32 H9          3.3197   41.7705   12.9083 H           1 CBI       0.2100
     33 H10         2.4520   44.9003   12.4922 H           1 CBI       0.2100
     34 H11         4.2279   44.5571    7.7856 H           1 CBI       0.2095
     35 H12        -0.5251   39.8806    4.6868 H           1 CBI       0.0935
     36 H13         0.1351   42.8629    5.0782 H           1 CBI       0.0671
     37 H14         1.1823   40.4635    6.6780 H           1 CBI       0.0648
     38 H15        -0.7447   42.6810    7.5737 H           1 CBI       0.0651
     39 H16        -1.2974   39.7002    7.0948 H           1 CBI       0.0647
     40 H17        -2.7103   40.6497    8.9165 H           1 CBI       0.0584
     41 H18        -3.6537   40.2447    7.4839 H           1 CBI       0.0584
     42 H19        -1.7584   42.1672    3.5954 H           1 CBI       0.2126
     43 H20         1.5948   40.6171    4.1946 H           1 CBI       0.2101
     44 H21         2.6410   42.0969    6.4473 H           1 CBI       0.2100
     45 H22        -3.6793   42.3910    6.9062 H           1 CBI       0.2095
@<TRIPOS>BOND
     1     1    21   1
     2     1    10   1
     3     1     2   1
     4     2     7   1
     5     2     3   1
     6     3     8   1
     7     3     4   1
     8     4     9   1
     9     4     5   1
    10     5    10   1
    11     5     6   1
    12     6    11   1
    13    21    15   1
    14    15    16   1
    15    15    14   1
    16    14    20   1
    17    14    13   1
    18    13    19   1
    19    13    12   1
    20    12    22   1
    21    12    18   1
    22    22    16   1
    23    16    17   1
    24    17    23   1
    25     1    24   1
    26     2    25   1
    27     3    26   1
    28     4    27   1
    29     5    28   1
    30     6    29   1
    31     6    30   1
    32     7    31   1
    33     8    32   1
    34     9    33   1
    35    11    34   1
    36    12    35   1
    37    13    36   1
    38    14    37   1
    39    15    38   1
    40    16    39   1
    41    17    40   1
    42    17    41   1
    43    18    42   1
    44    19    43   1
    45    20    44   1
    46    23    45   1
@<TRIPOS>SUBSTRUCTURE
     1  CBI      1

