@<TRIPOS>MOLECULE
1qi0_ligand_055
    45    46
SMALL
GAST_HUCK
****
This file was generated by PARSER (from files_GN.cpp)

@<TRIPOS>ATOM
      1 C1          3.2631   41.3826   10.8028 C.3         1 CBI       0.1884
      2 C2          2.5502   41.4831    9.4172 C.3         1 CBI       0.1341
      3 C3          3.0250   42.7594    8.6647 C.3         1 CBI       0.1141
      4 C4          2.8438   44.0272    9.5511 C.3         1 CBI       0.1119
      5 C5          3.5769   43.8272   10.9137 C.3         1 CBI       0.1130
      6 C6          3.3172   44.9658   11.9349 C.3         1 CBI       0.0730
      7 O2          2.8343   40.3228    8.6291 O.3         1 CBI      -0.3841
      8 O3          2.2865   42.9166    7.4504 O.3         1 CBI      -0.3864
      9 O4          3.3740   45.1697    8.8688 O.3         1 CBI      -0.3865
     10 O5          3.1343   42.6132   11.5545 O.3         1 CBI      -0.3405
     11 O6          3.3243   46.2777   11.3663 O.3         1 CBI      -0.3924
     12 C1'        -0.5472   39.4336   14.1540 C.3         1 CBI       0.1854
     13 C2'        -0.6946   39.0491   12.6551 C.3         1 CBI       0.1339
     14 C3'         0.6903   39.0463   11.9447 C.3         1 CBI       0.1144
     15 C4'         1.4804   40.3559   12.2288 C.3         1 CBI       0.1184
     16 C5'         1.5756   40.5465   13.7788 C.3         1 CBI       0.1134
     17 C6'         2.3331   41.8096   14.2596 C.3         1 CBI       0.0730
     18 O1'        -1.8204   39.6961   14.7357 O.3         1 CBI      -0.3649
     19 O2'        -1.3141   37.7724   12.5328 O.3         1 CBI      -0.3841
     20 O3'         0.5056   38.8717   10.5459 O.3         1 CBI      -0.3864
     21 O4'         2.7878   40.2745   11.6077 O.3         1 CBI      -0.3401
     22 O5'         0.2300   40.6377   14.2958 O.3         1 CBI      -0.3407
     23 O6'         2.1182   41.9888   15.6619 O.3         1 CBI      -0.3924
     24 H1          4.3283   41.1915   10.6218 H           1 CBI       0.0938
     25 H2          1.4674   41.5476    9.5590 H           1 CBI       0.0671
     26 H3          4.0833   42.6532    8.4064 H           1 CBI       0.0648
     27 H4          1.7744   44.1925    9.7314 H           1 CBI       0.0647
     28 H5          4.6569   43.7781   10.7300 H           1 CBI       0.0647
     29 H6          4.0867   44.9245   12.7080 H           1 CBI       0.0584
     30 H7          2.3448   44.8217   12.4182 H           1 CBI       0.0584
     31 H8          2.3597   39.5894    9.0749 H           1 CBI       0.2101
     32 H9          2.6742   42.2679    6.8258 H           1 CBI       0.2100
     33 H10         2.8169   45.2750    8.0689 H           1 CBI       0.2100
     34 H11         4.2235   46.3949   10.9957 H           1 CBI       0.2095
     35 H12        -0.0850   38.6153   14.7177 H           1 CBI       0.0935
     36 H13        -1.3357   39.7881   12.1651 H           1 CBI       0.0671
     37 H14         1.2742   38.1947   12.3007 H           1 CBI       0.0648
     38 H15         0.8981   41.1917   11.8276 H           1 CBI       0.0651
     39 H16         2.0929   39.6868   14.2213 H           1 CBI       0.0647
     40 H17         1.9709   42.6991   13.7343 H           1 CBI       0.0584
     41 H18         3.4066   41.6897   14.0857 H           1 CBI       0.0584
     42 H19        -1.6122   40.2825   15.4964 H           1 CBI       0.2126
     43 H20        -2.2433   37.9022   12.8281 H           1 CBI       0.2101
     44 H21         0.0080   39.6606   10.2431 H           1 CBI       0.2100
     45 H22         2.9842   42.2334   16.0476 H           1 CBI       0.2095
@<TRIPOS>BOND
     1     1    21   1
     2     1    10   1
     3     1     2   1
     4     2     7   1
     5     2     3   1
     6     3     8   1
     7     3     4   1
     8     4     9   1
     9     4     5   1
    10     5    10   1
    11     5     6   1
    12     6    11   1
    13    21    15   1
    14    15    16   1
    15    15    14   1
    16    14    20   1
    17    14    13   1
    18    13    19   1
    19    13    12   1
    20    12    22   1
    21    12    18   1
    22    22    16   1
    23    16    17   1
    24    17    23   1
    25     1    24   1
    26     2    25   1
    27     3    26   1
    28     4    27   1
    29     5    28   1
    30     6    29   1
    31     6    30   1
    32     7    31   1
    33     8    32   1
    34     9    33   1
    35    11    34   1
    36    12    35   1
    37    13    36   1
    38    14    37   1
    39    15    38   1
    40    16    39   1
    41    17    40   1
    42    17    41   1
    43    18    42   1
    44    19    43   1
    45    20    44   1
    46    23    45   1
@<TRIPOS>SUBSTRUCTURE
     1  CBI      1

