@<TRIPOS>MOLECULE
1r5y_ligand_043
    21    22
SMALL
GAST_HUCK
****
This file was generated by PARSER (from files_GN.cpp)

@<TRIPOS>ATOM
      1 C6         18.1365   18.1742   14.7957 C.ar        1 DQU       0.0312
      2 N4         18.7238   18.8968   13.8256 N.pl3       1 DQU      -0.3412
      3 C1         17.1375   17.2361   14.4694 C.ar        1 DQU      -0.0487
      4 C2         16.5164   16.4812   15.4808 C.ar        1 DQU      -0.0660
      5 C3         16.8947   16.6581   16.8252 C.ar        1 DQU      -0.0076
      6 N3         16.2964   15.9215   17.8088 N.2         1 DQU      -0.3133
      7 C8         16.6477   16.0775   19.1087 C.2         1 DQU       0.2280
      8 N2         16.0462   15.3464   20.0589 N.pl3       1 DQU      -0.2818
      9 N1         17.6109   16.9754   19.4410 N.am        1 DQU      -0.1802
     10 C7         18.2219   17.7236   18.5264 C.2         1 DQU       0.2303
     11 O1         19.0732   18.5074   18.9208 O.2         1 DQU      -0.3873
     12 C4         17.9025   17.6004   17.1684 C.ar        1 DQU       0.0454
     13 C5         18.5182   18.3536   16.1408 C.ar        1 DQU      -0.0345
     14 H1         18.4656   18.7689   12.8981 H           1 DQU       0.1692
     15 H2         19.4188   19.5347   14.0523 H           1 DQU       0.1692
     16 H3         16.8557   17.0990   13.4955 H           1 DQU       0.0536
     17 H4         15.7946   15.7998   15.2330 H           1 DQU       0.0515
     18 H5         15.3606   14.7036   19.8171 H           1 DQU       0.1894
     19 H6         16.2979   15.4563   20.9893 H           1 DQU       0.1894
     20 H7         17.8495   17.0838   20.3760 H           1 DQU       0.2503
     21 H8         19.2426   19.0388   16.3710 H           1 DQU       0.0532
@<TRIPOS>BOND
     1     1     2   1
     2     1     3  ar
     3     1    13  ar
     4     3     4  ar
     5     4     5  ar
     6     5     6   1
     7     5    12  ar
     8     6     7   2
     9     7     8   1
    10     7     9  am
    11     9    10  am
    12    10    11   2
    13    10    12   1
    14    12    13  ar
    15     2    14   1
    16     2    15   1
    17     3    16   1
    18     4    17   1
    19     8    18   1
    20     8    19   1
    21     9    20   1
    22    13    21   1
@<TRIPOS>SUBSTRUCTURE
     1  DQU      1

