@<TRIPOS>MOLECULE
1r5y_ligand_054
    21    22
SMALL
GAST_HUCK
****
This file was generated by PARSER (from files_GN.cpp)

@<TRIPOS>ATOM
      1 C6         20.7364   17.6846    7.0565 C.ar        1 DQU       0.0312
      2 N4         21.0231   17.3016    5.7998 N.pl3       1 DQU      -0.3412
      3 C1         20.4278   19.0321    7.3306 C.ar        1 DQU      -0.0487
      4 C2         20.1243   19.4378    8.6430 C.ar        1 DQU      -0.0660
      5 C3         20.1303   18.4963    9.6899 C.ar        1 DQU      -0.0076
      6 N3         19.8310   18.8865   10.9651 N.2         1 DQU      -0.3133
      7 C8         19.8257   17.9930   11.9847 C.2         1 DQU       0.2280
      8 N2         19.5243   18.3905   13.2298 N.pl3       1 DQU      -0.2818
      9 N1         20.1249   16.6913   11.7389 N.am        1 DQU      -0.1802
     10 C7         20.4334   16.2571   10.5195 C.2         1 DQU       0.2303
     11 O1         20.7068   15.0723   10.3979 O.2         1 DQU      -0.3873
     12 C4         20.4443   17.1342    9.4276 C.ar        1 DQU       0.0454
     13 C5         20.7444   16.7392    8.1025 C.ar        1 DQU      -0.0345
     14 H1         21.0192   17.9513    5.0797 H           1 DQU       0.1692
     15 H2         21.2342   16.3739    5.6107 H           1 DQU       0.1692
     16 H3         20.4217   19.7239    6.5763 H           1 DQU       0.0536
     17 H4         19.8990   20.4184    8.8300 H           1 DQU       0.0515
     18 H5         19.3173   19.3209   13.4077 H           1 DQU       0.1894
     19 H6         19.5126   17.7452   13.9544 H           1 DQU       0.1894
     20 H7         20.1125   16.0600   12.4766 H           1 DQU       0.2503
     21 H8         20.9718   15.7626    7.8968 H           1 DQU       0.0532
@<TRIPOS>BOND
     1     1     2   1
     2     1     3  ar
     3     1    13  ar
     4     3     4  ar
     5     4     5  ar
     6     5     6   1
     7     5    12  ar
     8     6     7   2
     9     7     8   1
    10     7     9  am
    11     9    10  am
    12    10    11   2
    13    10    12   1
    14    12    13  ar
    15     2    14   1
    16     2    15   1
    17     3    16   1
    18     4    17   1
    19     8    18   1
    20     8    19   1
    21     9    20   1
    22    13    21   1
@<TRIPOS>SUBSTRUCTURE
     1  DQU      1

