@<TRIPOS>MOLECULE
1r5y_ligand_064
    21    22
SMALL
GAST_HUCK
****
This file was generated by PARSER (from files_GN.cpp)

@<TRIPOS>ATOM
      1 C6         18.4112   21.0985   13.6926 C.ar        1 DQU       0.0312
      2 N4         19.1310   22.2072   13.4440 N.pl3       1 DQU      -0.3412
      3 C1         17.3565   21.1380   14.6263 C.ar        1 DQU      -0.0487
      4 C2         16.5979   19.9829   14.8877 C.ar        1 DQU      -0.0660
      5 C3         16.8915   18.7804   14.2171 C.ar        1 DQU      -0.0076
      6 N3         16.1560   17.6570   14.4707 N.2         1 DQU      -0.3133
      7 C8         16.4236   16.4899   13.8350 C.2         1 DQU       0.2280
      8 N2         15.6886   15.3990   14.0964 N.pl3       1 DQU      -0.2818
      9 N1         17.4360   16.4345   12.9316 N.am        1 DQU      -0.1802
     10 C7         18.1855   17.4958   12.6448 C.2         1 DQU       0.2303
     11 O1         19.0736   17.3484   11.8171 O.2         1 DQU      -0.3873
     12 C4         17.9536   18.7264   13.2729 C.ar        1 DQU       0.0454
     13 C5         18.7082   19.8960   13.0188 C.ar        1 DQU      -0.0345
     14 H1         18.9249   23.0352   13.9060 H           1 DQU       0.1692
     15 H2         19.8566   22.1830   12.8003 H           1 DQU       0.1692
     16 H3         17.1348   22.0069   15.1189 H           1 DQU       0.0536
     17 H4         15.8342   20.0220   15.5673 H           1 DQU       0.0515
     18 H5         14.9654   15.4435   14.7416 H           1 DQU       0.1894
     19 H6         15.8783   14.5641   13.6406 H           1 DQU       0.1894
     20 H7         17.6190   15.5934   12.4826 H           1 DQU       0.2503
     21 H8         19.4757   19.8768   12.3417 H           1 DQU       0.0532
@<TRIPOS>BOND
     1     1     2   1
     2     1     3  ar
     3     1    13  ar
     4     3     4  ar
     5     4     5  ar
     6     5     6   1
     7     5    12  ar
     8     6     7   2
     9     7     8   1
    10     7     9  am
    11     9    10  am
    12    10    11   2
    13    10    12   1
    14    12    13  ar
    15     2    14   1
    16     2    15   1
    17     3    16   1
    18     4    17   1
    19     8    18   1
    20     8    19   1
    21     9    20   1
    22    13    21   1
@<TRIPOS>SUBSTRUCTURE
     1  DQU      1

