@<TRIPOS>MOLECULE
1r5y_ligand_027
    21    22
SMALL
GAST_HUCK
****
This file was generated by PARSER (from files_GN.cpp)

@<TRIPOS>ATOM
      1 C6         14.6483   15.5929   14.3666 C.ar        1 DQU       0.0312
      2 N4         13.7110   14.6298   14.3262 N.pl3       1 DQU      -0.3412
      3 C1         15.6310   15.5718   15.3727 C.ar        1 DQU      -0.0487
      4 C2         16.6112   16.5772   15.4258 C.ar        1 DQU      -0.0660
      5 C3         16.6193   17.6074   14.4669 C.ar        1 DQU      -0.0076
      6 N3         17.5796   18.5797   14.5126 N.2         1 DQU      -0.3133
      7 C8         17.5962   19.5892   13.6090 C.2         1 DQU       0.2280
      8 N2         18.5425   20.5355   13.6812 N.pl3       1 DQU      -0.2818
      9 N1         16.6506   19.6274   12.6330 N.am        1 DQU      -0.1802
     10 C7         15.6973   18.7046   12.5344 C.2         1 DQU       0.2303
     11 O1         14.8897   18.8269   11.6236 O.2         1 DQU      -0.3873
     12 C4         15.6281   17.6439   13.4459 C.ar        1 DQU       0.0454
     13 C5         14.6482   16.6268   13.4077 C.ar        1 DQU      -0.0345
     14 H1         13.7523   13.8977   14.9619 H           1 DQU       0.1692
     15 H2         13.0305   14.6317   13.6294 H           1 DQU       0.1692
     16 H3         15.6353   14.8249   16.0690 H           1 DQU       0.0536
     17 H4         17.3274   16.5571   16.1556 H           1 DQU       0.0515
     18 H5         19.2384   20.4817   14.3571 H           1 DQU       0.1894
     19 H6         18.5555   21.2508   13.0247 H           1 DQU       0.1894
     20 H7         16.6720   20.3506   11.9859 H           1 DQU       0.2503
     21 H8         13.9255   16.6360   12.6860 H           1 DQU       0.0532
@<TRIPOS>BOND
     1     1     2   1
     2     1     3  ar
     3     1    13  ar
     4     3     4  ar
     5     4     5  ar
     6     5     6   1
     7     5    12  ar
     8     6     7   2
     9     7     8   1
    10     7     9  am
    11     9    10  am
    12    10    11   2
    13    10    12   1
    14    12    13  ar
    15     2    14   1
    16     2    15   1
    17     3    16   1
    18     4    17   1
    19     8    18   1
    20     8    19   1
    21     9    20   1
    22    13    21   1
@<TRIPOS>SUBSTRUCTURE
     1  DQU      1

