@<TRIPOS>MOLECULE
1r5y_ligand_001
    21    22
SMALL
GAST_HUCK
****
This file was generated by PARSER (from files_GN.cpp)

@<TRIPOS>ATOM
      1 C6         18.2602   17.8402   16.7171 C.ar        1 DQU       0.0312
      2 N4         19.5518   18.1455   16.4964 N.pl3       1 DQU      -0.3412
      3 C1         17.3402   17.8609   15.6500 C.ar        1 DQU      -0.0487
      4 C2         15.9888   17.5409   15.8738 C.ar        1 DQU      -0.0660
      5 C3         15.5506   17.1989   17.1671 C.ar        1 DQU      -0.0076
      6 N3         14.2364   16.8929   17.3855 N.2         1 DQU      -0.3133
      7 C8         13.7958   16.5600   18.6228 C.2         1 DQU       0.2280
      8 N2         12.5066   16.2528   18.8233 N.pl3       1 DQU      -0.2818
      9 N1         14.6667   16.5348   19.6627 N.am        1 DQU      -0.1802
     10 C7         15.9558   16.8298   19.5119 C.2         1 DQU       0.2303
     11 O1         16.6642   16.7787   20.5074 O.2         1 DQU      -0.3873
     12 C4         16.4680   17.1739   18.2536 C.ar        1 DQU       0.0454
     13 C5         17.8249   17.4987   18.0144 C.ar        1 DQU      -0.0345
     14 H1         19.8502   18.3801   15.6040 H           1 DQU       0.1692
     15 H2         20.1871   18.1321   17.2292 H           1 DQU       0.1692
     16 H3         17.6473   18.1088   14.7066 H           1 DQU       0.0536
     17 H4         15.3276   17.5588   15.0929 H           1 DQU       0.0515
     18 H5         11.8790   16.2688   18.0831 H           1 DQU       0.1894
     19 H6         12.2107   15.9997   19.7108 H           1 DQU       0.1894
     20 H7         14.3329   16.2891   20.5406 H           1 DQU       0.2503
     21 H8         18.5013   17.4876   18.7838 H           1 DQU       0.0532
@<TRIPOS>BOND
     1     1     2   1
     2     1     3  ar
     3     1    13  ar
     4     3     4  ar
     5     4     5  ar
     6     5     6   1
     7     5    12  ar
     8     6     7   2
     9     7     8   1
    10     7     9  am
    11     9    10  am
    12    10    11   2
    13    10    12   1
    14    12    13  ar
    15     2    14   1
    16     2    15   1
    17     3    16   1
    18     4    17   1
    19     8    18   1
    20     8    19   1
    21     9    20   1
    22    13    21   1
@<TRIPOS>SUBSTRUCTURE
     1  DQU      1

