@<TRIPOS>MOLECULE
1r5y_ligand_044
    21    22
SMALL
GAST_HUCK
****
This file was generated by PARSER (from files_GN.cpp)

@<TRIPOS>ATOM
      1 C6         13.6416   18.1624   15.5111 C.ar        1 DQU       0.0312
      2 N4         12.6832   17.2523   15.7615 N.pl3       1 DQU      -0.3412
      3 C1         13.2918   19.4718   15.1260 C.ar        1 DQU      -0.0487
      4 C2         14.2922   20.4222   14.8533 C.ar        1 DQU      -0.0660
      5 C3         15.6502   20.0663   14.9596 C.ar        1 DQU      -0.0076
      6 N3         16.6236   20.9863   14.6845 N.2         1 DQU      -0.3133
      7 C8         17.9352   20.6567   14.7762 C.2         1 DQU       0.2280
      8 N2         18.8904   21.5621   14.5213 N.pl3       1 DQU      -0.2818
      9 N1         18.2893   19.3998   15.1446 N.am        1 DQU      -0.1802
     10 C7         17.3869   18.4649   15.4293 C.2         1 DQU       0.2303
     11 O1         17.8028   17.3678   15.7736 O.2         1 DQU      -0.3873
     12 C4         16.0172   18.7482   15.3493 C.ar        1 DQU       0.0454
     13 C5         15.0004   17.8041   15.6255 C.ar        1 DQU      -0.0345
     14 H1         11.7464   17.4885   15.6702 H           1 DQU       0.1692
     15 H2         12.9273   16.3507   16.0238 H           1 DQU       0.1692
     16 H3         12.3083   19.7387   15.0390 H           1 DQU       0.0536
     17 H4         14.0269   21.3699   14.5738 H           1 DQU       0.0515
     18 H5         18.6538   22.4668   14.2629 H           1 DQU       0.1894
     19 H6         19.8226   21.3076   14.6146 H           1 DQU       0.1894
     20 H7         19.2337   19.1886   15.2063 H           1 DQU       0.2503
     21 H8         15.2451   16.8501   15.9045 H           1 DQU       0.0532
@<TRIPOS>BOND
     1     1     2   1
     2     1     3  ar
     3     1    13  ar
     4     3     4  ar
     5     4     5  ar
     6     5     6   1
     7     5    12  ar
     8     6     7   2
     9     7     8   1
    10     7     9  am
    11     9    10  am
    12    10    11   2
    13    10    12   1
    14    12    13  ar
    15     2    14   1
    16     2    15   1
    17     3    16   1
    18     4    17   1
    19     8    18   1
    20     8    19   1
    21     9    20   1
    22    13    21   1
@<TRIPOS>SUBSTRUCTURE
     1  DQU      1

