@<TRIPOS>MOLECULE
1r5y_ligand_058
    21    22
SMALL
GAST_HUCK
****
This file was generated by PARSER (from files_GN.cpp)

@<TRIPOS>ATOM
      1 C6         15.6946   21.0749   14.4079 C.ar        1 DQU       0.0312
      2 N4         15.5405   22.3945   14.6178 N.pl3       1 DQU      -0.3412
      3 C1         16.6095   20.6153   13.4400 C.ar        1 DQU      -0.0487
      4 C2         16.7733   19.2363   13.2179 C.ar        1 DQU      -0.0660
      5 C3         16.0244   18.3081   13.9662 C.ar        1 DQU      -0.0076
      6 N3         16.1814   16.9680   13.7513 N.2         1 DQU      -0.3133
      7 C8         15.4712   16.0584   14.4632 C.2         1 DQU       0.2280
      8 N2         15.6499   14.7475   14.2385 N.pl3       1 DQU      -0.2818
      9 N1         14.5895   16.4837   15.4046 N.am        1 DQU      -0.1802
     10 C7         14.3928   17.7754   15.6550 C.2         1 DQU       0.2303
     11 O1         13.5808   18.0612   16.5234 O.2         1 DQU      -0.3873
     12 C4         15.0996   18.7577   14.9485 C.ar        1 DQU       0.0454
     13 C5         14.9398   20.1480   15.1558 C.ar        1 DQU      -0.0345
     14 H1         16.0578   23.0333   14.1030 H           1 DQU       0.1692
     15 H2         14.9123   22.7104   15.2862 H           1 DQU       0.1692
     16 H3         17.1586   21.2820   12.8908 H           1 DQU       0.0536
     17 H4         17.4381   18.9130   12.5105 H           1 DQU       0.0515
     18 H5         16.2955   14.4556   13.5764 H           1 DQU       0.1894
     19 H6         15.1549   14.0892   14.7520 H           1 DQU       0.1894
     20 H7         14.0879   15.8236   15.9094 H           1 DQU       0.2503
     21 H8         14.2705   20.4915   15.8492 H           1 DQU       0.0532
@<TRIPOS>BOND
     1     1     2   1
     2     1     3  ar
     3     1    13  ar
     4     3     4  ar
     5     4     5  ar
     6     5     6   1
     7     5    12  ar
     8     6     7   2
     9     7     8   1
    10     7     9  am
    11     9    10  am
    12    10    11   2
    13    10    12   1
    14    12    13  ar
    15     2    14   1
    16     2    15   1
    17     3    16   1
    18     4    17   1
    19     8    18   1
    20     8    19   1
    21     9    20   1
    22    13    21   1
@<TRIPOS>SUBSTRUCTURE
     1  DQU      1

