@<TRIPOS>MOLECULE
1r5y_ligand_063
    21    22
SMALL
GAST_HUCK
****
This file was generated by PARSER (from files_GN.cpp)

@<TRIPOS>ATOM
      1 C6         13.0765   14.9974   14.7227 C.ar        1 DQU       0.0312
      2 N4         13.4804   14.7295   13.4705 N.pl3       1 DQU      -0.3412
      3 C1         12.6901   13.9476   15.5789 C.ar        1 DQU      -0.0487
      4 C2         12.2833   14.2215   16.8951 C.ar        1 DQU      -0.0660
      5 C3         12.2496   15.5494   17.3589 C.ar        1 DQU      -0.0076
      6 N3         11.8563   15.8074   18.6360 N.2         1 DQU      -0.3133
      7 C8         11.8077   17.0807   19.1053 C.2         1 DQU       0.2280
      8 N2         11.4126   17.3261   20.3630 N.pl3       1 DQU      -0.2818
      9 N1         12.1665   18.1081   18.2926 N.am        1 DQU      -0.1802
     10 C7         12.5693   17.9124   17.0401 C.2         1 DQU       0.2303
     11 O1         12.8767   18.8994   16.3881 O.2         1 DQU      -0.3873
     12 C4         12.6296   16.6197   16.5042 C.ar        1 DQU       0.0454
     13 C5         13.0431   16.3304   15.1836 C.ar        1 DQU      -0.0345
     14 H1         13.5029   13.8140   13.1503 H           1 DQU       0.1692
     15 H2         13.7476   15.4538   12.8830 H           1 DQU       0.1692
     16 H3         12.7098   12.9788   15.2518 H           1 DQU       0.0536
     17 H4         12.0157   13.4531   17.5135 H           1 DQU       0.0515
     18 H5         11.1566   16.5916   20.9425 H           1 DQU       0.1894
     19 H6         11.3823   18.2377   20.6935 H           1 DQU       0.1894
     20 H7         12.1300   19.0131   18.6389 H           1 DQU       0.2503
     21 H8         13.3223   17.0867   14.5529 H           1 DQU       0.0532
@<TRIPOS>BOND
     1     1     2   1
     2     1     3  ar
     3     1    13  ar
     4     3     4  ar
     5     4     5  ar
     6     5     6   1
     7     5    12  ar
     8     6     7   2
     9     7     8   1
    10     7     9  am
    11     9    10  am
    12    10    11   2
    13    10    12   1
    14    12    13  ar
    15     2    14   1
    16     2    15   1
    17     3    16   1
    18     4    17   1
    19     8    18   1
    20     8    19   1
    21     9    20   1
    22    13    21   1
@<TRIPOS>SUBSTRUCTURE
     1  DQU      1

