@<TRIPOS>MOLECULE
1r5y_ligand_031
    21    22
SMALL
GAST_HUCK
****
This file was generated by PARSER (from files_GN.cpp)

@<TRIPOS>ATOM
      1 C6         17.4033   16.9780   16.5474 C.ar        1 DQU       0.0312
      2 N4         17.5179   17.0365   15.2087 N.pl3       1 DQU      -0.3412
      3 C1         16.1601   17.2319   17.1611 C.ar        1 DQU      -0.0487
      4 C2         16.0307   17.1585   18.5599 C.ar        1 DQU      -0.0660
      5 C3         17.1462   16.8334   19.3542 C.ar        1 DQU      -0.0076
      6 N3         17.0233   16.7713   20.7143 N.2         1 DQU      -0.3133
      7 C8         18.0849   16.4541   21.4955 C.2         1 DQU       0.2280
      8 N2         17.9457   16.3994   22.8284 N.pl3       1 DQU      -0.2818
      9 N1         19.2876   16.1952   20.9198 N.am        1 DQU      -0.1802
     10 C7         19.4689   16.2545   19.6033 C.2         1 DQU       0.2303
     11 O1         20.5927   16.0206   19.1821 O.2         1 DQU      -0.3873
     12 C4         18.4065   16.5741   18.7480 C.ar        1 DQU       0.0454
     13 C5         18.5204   16.6440   17.3395 C.ar        1 DQU      -0.0345
     14 H1         16.7458   17.2569   14.6649 H           1 DQU       0.1692
     15 H2         18.3584   16.8081   14.7804 H           1 DQU       0.1692
     16 H3         15.3424   17.4683   16.5938 H           1 DQU       0.0536
     17 H4         15.1250   17.3471   18.9967 H           1 DQU       0.0515
     18 H5         17.0833   16.5798   23.2343 H           1 DQU       0.1894
     19 H6         18.7036   16.1673   23.3880 H           1 DQU       0.1894
     20 H7         20.0381   15.9573   21.4875 H           1 DQU       0.2503
     21 H8         19.4181   16.4557   16.8856 H           1 DQU       0.0532
@<TRIPOS>BOND
     1     1     2   1
     2     1     3  ar
     3     1    13  ar
     4     3     4  ar
     5     4     5  ar
     6     5     6   1
     7     5    12  ar
     8     6     7   2
     9     7     8   1
    10     7     9  am
    11     9    10  am
    12    10    11   2
    13    10    12   1
    14    12    13  ar
    15     2    14   1
    16     2    15   1
    17     3    16   1
    18     4    17   1
    19     8    18   1
    20     8    19   1
    21     9    20   1
    22    13    21   1
@<TRIPOS>SUBSTRUCTURE
     1  DQU      1

