@<TRIPOS>MOLECULE
1r5y_ligand_029
    21    22
SMALL
GAST_HUCK
****
This file was generated by PARSER (from files_GN.cpp)

@<TRIPOS>ATOM
      1 C6         13.3078   14.9137   15.5446 C.ar        1 DQU       0.0312
      2 N4         12.4175   13.9085   15.4864 N.pl3       1 DQU      -0.3412
      3 C1         13.3629   15.7344   16.6879 C.ar        1 DQU      -0.0487
      4 C2         14.2908   16.7874   16.7586 C.ar        1 DQU      -0.0660
      5 C3         15.1701   17.0240   15.6853 C.ar        1 DQU      -0.0076
      6 N3         16.0726   18.0460   15.7564 N.2         1 DQU      -0.3133
      7 C8         16.9293   18.2933   14.7360 C.2         1 DQU       0.2280
      8 N2         17.8014   19.3075   14.8311 N.pl3       1 DQU      -0.2818
      9 N1         16.8912   17.5136   13.6238 N.am        1 DQU      -0.1802
     10 C7         16.0289   16.5073   13.4953 C.2         1 DQU       0.2303
     11 O1         16.0546   15.8749   12.4491 O.2         1 DQU      -0.3873
     12 C4         15.1243   16.2056   14.5229 C.ar        1 DQU       0.0454
     13 C5         14.1851   15.1488   14.4649 C.ar        1 DQU      -0.0345
     14 H1         11.8143   13.7444   16.2288 H           1 DQU       0.1692
     15 H2         12.3764   13.3448   14.7002 H           1 DQU       0.1692
     16 H3         12.7277   15.5702   17.4728 H           1 DQU       0.0536
     17 H4         14.3231   17.3791   17.5923 H           1 DQU       0.0515
     18 H5         17.8124   19.8618   15.6276 H           1 DQU       0.1894
     19 H6         18.4181   19.4929   14.1050 H           1 DQU       0.1894
     20 H7         17.5068   17.7021   12.8976 H           1 DQU       0.2503
     21 H8         14.1377   14.5469   13.6374 H           1 DQU       0.0532
@<TRIPOS>BOND
     1     1     2   1
     2     1     3  ar
     3     1    13  ar
     4     3     4  ar
     5     4     5  ar
     6     5     6   1
     7     5    12  ar
     8     6     7   2
     9     7     8   1
    10     7     9  am
    11     9    10  am
    12    10    11   2
    13    10    12   1
    14    12    13  ar
    15     2    14   1
    16     2    15   1
    17     3    16   1
    18     4    17   1
    19     8    18   1
    20     8    19   1
    21     9    20   1
    22    13    21   1
@<TRIPOS>SUBSTRUCTURE
     1  DQU      1

