@<TRIPOS>MOLECULE
1r5y_ligand_039
    21    22
SMALL
GAST_HUCK
****
This file was generated by PARSER (from files_GN.cpp)

@<TRIPOS>ATOM
      1 C6         14.6394   15.7729   15.1393 C.ar        1 DQU       0.0312
      2 N4         13.5923   15.2630   15.8119 N.pl3       1 DQU      -0.3412
      3 C1         14.6652   15.7172   13.7317 C.ar        1 DQU      -0.0487
      4 C2         15.7543   16.2513   13.0204 C.ar        1 DQU      -0.0660
      5 C3         16.8269   16.8377   13.7137 C.ar        1 DQU      -0.0076
      6 N3         17.8820   17.3494   13.0164 N.2         1 DQU      -0.3133
      7 C8         18.9232   17.9207   13.6643 C.2         1 DQU       0.2280
      8 N2         19.9544   18.4275   12.9768 N.pl3       1 DQU      -0.2818
      9 N1         18.9209   17.9893   15.0190 N.am        1 DQU      -0.1802
     10 C7         17.9212   17.5027   15.7510 C.2         1 DQU       0.2303
     11 O1         18.0038   17.6051   16.9666 O.2         1 DQU      -0.3873
     12 C4         16.8167   16.9002   15.1344 C.ar        1 DQU       0.0454
     13 C5         15.7120   16.3645   15.8378 C.ar        1 DQU      -0.0345
     14 H1         12.8540   14.8570   15.3299 H           1 DQU       0.1692
     15 H2         13.5709   15.3017   16.7810 H           1 DQU       0.1692
     16 H3         13.8913   15.2881   13.2192 H           1 DQU       0.0536
     17 H4         15.7664   16.2139   11.9989 H           1 DQU       0.0515
     18 H5         19.9669   18.3917   12.0070 H           1 DQU       0.1894
     19 H6         20.6738   18.8585   13.4621 H           1 DQU       0.1894
     20 H7         19.6741   18.4183   15.4533 H           1 DQU       0.2503
     21 H8         15.6839   16.4031   16.8598 H           1 DQU       0.0532
@<TRIPOS>BOND
     1     1     2   1
     2     1     3  ar
     3     1    13  ar
     4     3     4  ar
     5     4     5  ar
     6     5     6   1
     7     5    12  ar
     8     6     7   2
     9     7     8   1
    10     7     9  am
    11     9    10  am
    12    10    11   2
    13    10    12   1
    14    12    13  ar
    15     2    14   1
    16     2    15   1
    17     3    16   1
    18     4    17   1
    19     8    18   1
    20     8    19   1
    21     9    20   1
    22    13    21   1
@<TRIPOS>SUBSTRUCTURE
     1  DQU      1

