@<TRIPOS>MOLECULE
1r5y_ligand_056
    21    22
SMALL
GAST_HUCK
****
This file was generated by PARSER (from files_GN.cpp)

@<TRIPOS>ATOM
      1 C6         18.8628   20.9670   14.2326 C.ar        1 DQU       0.0312
      2 N4         18.5159   21.7437   15.2740 N.pl3       1 DQU      -0.3412
      3 C1         19.8188   21.4214   13.3034 C.ar        1 DQU      -0.0487
      4 C2         20.1883   20.6119   12.2143 C.ar        1 DQU      -0.0660
      5 C3         19.6027   19.3426   12.0489 C.ar        1 DQU      -0.0076
      6 N3         19.9587   18.5567   10.9897 N.2         1 DQU      -0.3133
      7 C8         19.4051   17.3315   10.8126 C.2         1 DQU       0.2280
      8 N2         19.7690   16.5741    9.7681 N.pl3       1 DQU      -0.2818
      9 N1         18.4827   16.8777   11.6994 N.am        1 DQU      -0.1802
     10 C7         18.0957   17.5988   12.7497 C.2         1 DQU       0.2303
     11 O1         17.2608   17.1043   13.4927 O.2         1 DQU      -0.3873
     12 C4         18.6373   18.8701   12.9817 C.ar        1 DQU       0.0454
     13 C5         18.2756   19.6946   14.0726 C.ar        1 DQU      -0.0345
     14 H1         18.9262   22.6151   15.3910 H           1 DQU       0.1692
     15 H2         17.8681   21.4247   15.9205 H           1 DQU       0.1692
     16 H3         20.2528   22.3414   13.4167 H           1 DQU       0.0536
     17 H4         20.8830   20.9513   11.5444 H           1 DQU       0.0515
     18 H5         20.4291   16.9013    9.1361 H           1 DQU       0.1894
     19 H6         19.3737   15.6961    9.6438 H           1 DQU       0.1894
     20 H7         18.0958   15.9992   11.5600 H           1 DQU       0.2503
     21 H8         17.5827   19.3724   14.7542 H           1 DQU       0.0532
@<TRIPOS>BOND
     1     1     2   1
     2     1     3  ar
     3     1    13  ar
     4     3     4  ar
     5     4     5  ar
     6     5     6   1
     7     5    12  ar
     8     6     7   2
     9     7     8   1
    10     7     9  am
    11     9    10  am
    12    10    11   2
    13    10    12   1
    14    12    13  ar
    15     2    14   1
    16     2    15   1
    17     3    16   1
    18     4    17   1
    19     8    18   1
    20     8    19   1
    21     9    20   1
    22    13    21   1
@<TRIPOS>SUBSTRUCTURE
     1  DQU      1

