@<TRIPOS>MOLECULE
1r5y_ligand_057
    21    22
SMALL
GAST_HUCK
****
This file was generated by PARSER (from files_GN.cpp)

@<TRIPOS>ATOM
      1 C6         12.4098   15.2040   17.2083 C.ar        1 DQU       0.0312
      2 N4         12.2990   13.8761   17.3912 N.pl3       1 DQU      -0.3412
      3 C1         12.1720   16.0852   18.2819 C.ar        1 DQU      -0.0487
      4 C2         12.2885   17.4748   18.0977 C.ar        1 DQU      -0.0660
      5 C3         12.6447   17.9905   16.8370 C.ar        1 DQU      -0.0076
      6 N3         12.7566   19.3402   16.6556 N.2         1 DQU      -0.3133
      7 C8         13.0984   19.8559   15.4495 C.2         1 DQU       0.2280
      8 N2         13.2064   21.1835   15.2932 N.pl3       1 DQU      -0.2818
      9 N1         13.3304   19.0212   14.4036 N.am        1 DQU      -0.1802
     10 C7         13.2352   17.6993   14.5210 C.2         1 DQU       0.2303
     11 O1         13.4650   17.0302   13.5237 O.2         1 DQU      -0.3873
     12 C4         12.8863   17.1124   15.7445 C.ar        1 DQU       0.0454
     13 C5         12.7654   15.7169   15.9439 C.ar        1 DQU      -0.0345
     14 H1         12.0568   13.5231   18.2620 H           1 DQU       0.1692
     15 H2         12.4645   13.2675   16.6535 H           1 DQU       0.1692
     16 H3         11.9145   15.7200   19.2025 H           1 DQU       0.0536
     17 H4         12.1148   18.1058   18.8840 H           1 DQU       0.0515
     18 H5         13.0406   21.7763   16.0431 H           1 DQU       0.1894
     19 H6         13.4526   21.5534   14.4305 H           1 DQU       0.1894
     20 H7         13.5743   19.4014   13.5444 H           1 DQU       0.2503
     21 H8         12.9366   15.0692   15.1698 H           1 DQU       0.0532
@<TRIPOS>BOND
     1     1     2   1
     2     1     3  ar
     3     1    13  ar
     4     3     4  ar
     5     4     5  ar
     6     5     6   1
     7     5    12  ar
     8     6     7   2
     9     7     8   1
    10     7     9  am
    11     9    10  am
    12    10    11   2
    13    10    12   1
    14    12    13  ar
    15     2    14   1
    16     2    15   1
    17     3    16   1
    18     4    17   1
    19     8    18   1
    20     8    19   1
    21     9    20   1
    22    13    21   1
@<TRIPOS>SUBSTRUCTURE
     1  DQU      1

