@<TRIPOS>MOLECULE
1r5y_ligand_018
    21    22
SMALL
GAST_HUCK
****
This file was generated by PARSER (from files_GN.cpp)

@<TRIPOS>ATOM
      1 C6         17.0340   17.7435    8.9128 C.ar        1 DQU       0.0312
      2 N4         16.4601   17.5519    7.7123 N.pl3       1 DQU      -0.3412
      3 C1         18.0314   18.7277    9.0677 C.ar        1 DQU      -0.0487
      4 C2         18.6248   18.9407   10.3250 C.ar        1 DQU      -0.0660
      5 C3         18.2144   18.1769   11.4353 C.ar        1 DQU      -0.0076
      6 N3         18.7881   18.3862   12.6574 N.2         1 DQU      -0.3133
      7 C8         18.4053   17.6628   13.7372 C.2         1 DQU       0.2280
      8 N2         18.9862   17.8685   14.9268 N.pl3       1 DQU      -0.2818
      9 N1         17.4364   16.7206   13.6104 N.am        1 DQU      -0.1802
     10 C7         16.8446   16.4710   12.4466 C.2         1 DQU       0.2303
     11 O1         15.9836   15.6025   12.4334 O.2         1 DQU      -0.3873
     12 C4         17.2062   17.1813   11.2925 C.ar        1 DQU       0.0454
     13 C5         16.6337   16.9624   10.0171 C.ar        1 DQU      -0.0345
     14 H1         16.7353   18.0830    6.9472 H           1 DQU       0.1692
     15 H2         15.7613   16.8860    7.6083 H           1 DQU       0.1692
     16 H3         18.3325   19.2922    8.2679 H           1 DQU       0.0536
     17 H4         19.3523   19.6533   10.4287 H           1 DQU       0.0515
     18 H5         19.6901   18.5309   15.0177 H           1 DQU       0.1894
     19 H6         18.7150   17.3407   15.6942 H           1 DQU       0.1894
     20 H7         17.1711   16.2131   14.3943 H           1 DQU       0.2503
     21 H8         15.9255   16.2343    9.8885 H           1 DQU       0.0532
@<TRIPOS>BOND
     1     1     2   1
     2     1     3  ar
     3     1    13  ar
     4     3     4  ar
     5     4     5  ar
     6     5     6   1
     7     5    12  ar
     8     6     7   2
     9     7     8   1
    10     7     9  am
    11     9    10  am
    12    10    11   2
    13    10    12   1
    14    12    13  ar
    15     2    14   1
    16     2    15   1
    17     3    16   1
    18     4    17   1
    19     8    18   1
    20     8    19   1
    21     9    20   1
    22    13    21   1
@<TRIPOS>SUBSTRUCTURE
     1  DQU      1

