@<TRIPOS>MOLECULE
1r5y_ligand_006
    21    22
SMALL
GAST_HUCK
****
This file was generated by PARSER (from files_GN.cpp)

@<TRIPOS>ATOM
      1 C6         15.5270   16.9329   23.4502 C.ar        1 DQU       0.0312
      2 N4         14.4283   16.8000   24.2043 N.pl3       1 DQU      -0.3412
      3 C1         16.5996   17.7263   23.9030 C.ar        1 DQU      -0.0487
      4 C2         17.7770   17.8181   23.1458 C.ar        1 DQU      -0.0660
      5 C3         17.8708   17.1613   21.9050 C.ar        1 DQU      -0.0076
      6 N3         19.0081   17.2714   21.1625 N.2         1 DQU      -0.3133
      7 C8         19.1014   16.6631   19.9559 C.2         1 DQU       0.2280
      8 N2         20.2140   16.7793   19.2237 N.pl3       1 DQU      -0.2818
      9 N1         18.0701   15.9161   19.4919 N.am        1 DQU      -0.1802
     10 C7         16.9472   15.7539   20.1823 C.2         1 DQU       0.2303
     11 O1         16.0902   15.0292   19.6985 O.2         1 DQU      -0.3873
     12 C4         16.7864   16.3721   21.4277 C.ar        1 DQU       0.0454
     13 C5         15.6248   16.2528   22.2190 C.ar        1 DQU      -0.0345
     14 H1         14.3934   17.2084   25.0828 H           1 DQU       0.1692
     15 H2         13.7280   16.2018   23.9106 H           1 DQU       0.1692
     16 H3         16.5330   18.2285   24.7929 H           1 DQU       0.0536
     17 H4         18.5576   18.3723   23.4941 H           1 DQU       0.0515
     18 H5         20.9371   17.3513   19.5177 H           1 DQU       0.1894
     19 H6         20.2958   16.2715   18.4009 H           1 DQU       0.1894
     20 H7         18.1556   15.4866   18.6272 H           1 DQU       0.2503
     21 H8         14.8543   15.6584   21.9106 H           1 DQU       0.0532
@<TRIPOS>BOND
     1     1     2   1
     2     1     3  ar
     3     1    13  ar
     4     3     4  ar
     5     4     5  ar
     6     5     6   1
     7     5    12  ar
     8     6     7   2
     9     7     8   1
    10     7     9  am
    11     9    10  am
    12    10    11   2
    13    10    12   1
    14    12    13  ar
    15     2    14   1
    16     2    15   1
    17     3    16   1
    18     4    17   1
    19     8    18   1
    20     8    19   1
    21     9    20   1
    22    13    21   1
@<TRIPOS>SUBSTRUCTURE
     1  DQU      1

