@<TRIPOS>MOLECULE
1r5y_ligand_025
    21    22
SMALL
GAST_HUCK
****
This file was generated by PARSER (from files_GN.cpp)

@<TRIPOS>ATOM
      1 C6         14.8907   15.7597   14.8573 C.ar        1 DQU       0.0312
      2 N4         13.8455   15.2074   14.2150 N.pl3       1 DQU      -0.3412
      3 C1         16.0460   16.1277   14.1394 C.ar        1 DQU      -0.0487
      4 C2         17.1403   16.7077   14.8065 C.ar        1 DQU      -0.0660
      5 C3         17.0859   16.9198   16.1977 C.ar        1 DQU      -0.0076
      6 N3         18.1504   17.4778   16.8485 N.2         1 DQU      -0.3133
      7 C8         18.1149   17.6904   18.1871 C.2         1 DQU       0.2280
      8 N2         19.1641   18.2505   18.8064 N.pl3       1 DQU      -0.2818
      9 N1         17.0111   17.3403   18.8944 N.am        1 DQU      -0.1802
     10 C7         15.9460   16.7944   18.3140 C.2         1 DQU       0.2303
     11 O1         14.9984   16.5199   19.0335 O.2         1 DQU      -0.3873
     12 C4         15.9271   16.5513   16.9342 C.ar        1 DQU       0.0454
     13 C5         14.8328   15.9699   16.2506 C.ar        1 DQU      -0.0345
     14 H1         13.8827   15.0595   13.2567 H           1 DQU       0.1692
     15 H2         13.0498   14.9543   14.7089 H           1 DQU       0.1692
     16 H3         16.0972   15.9734   13.1292 H           1 DQU       0.0536
     17 H4         17.9763   16.9676   14.2777 H           1 DQU       0.0515
     18 H5         19.9636   18.4684   18.3038 H           1 DQU       0.1894
     19 H6         19.1373   18.4126   19.7628 H           1 DQU       0.1894
     20 H7         16.9967   17.4991   19.8517 H           1 DQU       0.2503
     21 H8         13.9900   15.6995   16.7646 H           1 DQU       0.0532
@<TRIPOS>BOND
     1     1     2   1
     2     1     3  ar
     3     1    13  ar
     4     3     4  ar
     5     4     5  ar
     6     5     6   1
     7     5    12  ar
     8     6     7   2
     9     7     8   1
    10     7     9  am
    11     9    10  am
    12    10    11   2
    13    10    12   1
    14    12    13  ar
    15     2    14   1
    16     2    15   1
    17     3    16   1
    18     4    17   1
    19     8    18   1
    20     8    19   1
    21     9    20   1
    22    13    21   1
@<TRIPOS>SUBSTRUCTURE
     1  DQU      1

