@<TRIPOS>MOLECULE
1r5y_ligand_011
    21    22
SMALL
GAST_HUCK
****
This file was generated by PARSER (from files_GN.cpp)

@<TRIPOS>ATOM
      1 C6         13.6280   19.7005   13.5587 C.ar        1 DQU       0.0312
      2 N4         13.6190   20.6306   12.5898 N.pl3       1 DQU      -0.3412
      3 C1         13.2173   20.0384   14.8635 C.ar        1 DQU      -0.0487
      4 C2         13.2267   19.0691   15.8816 C.ar        1 DQU      -0.0660
      5 C3         13.6534   17.7571   15.6008 C.ar        1 DQU      -0.0076
      6 N3         13.6675   16.8163   16.5921 N.2         1 DQU      -0.3133
      7 C8         14.0694   15.5476   16.3391 C.2         1 DQU       0.2280
      8 N2         14.0675   14.6320   17.3181 N.pl3       1 DQU      -0.2818
      9 N1         14.4595   15.1999   15.0878 N.am        1 DQU      -0.1802
     10 C7         14.4715   16.0759   14.0818 C.2         1 DQU       0.2303
     11 O1         14.8365   15.6673   12.9913 O.2         1 DQU      -0.3873
     12 C4         14.0721   17.4043   14.2885 C.ar        1 DQU       0.0454
     13 C5         14.0528   18.3873   13.2723 C.ar        1 DQU      -0.0345
     14 H1         13.3257   21.5343   12.7835 H           1 DQU       0.1692
     15 H2         13.9069   20.4004   11.6930 H           1 DQU       0.1692
     16 H3         12.9085   20.9886   15.0781 H           1 DQU       0.0536
     17 H4         12.9219   19.3222   16.8262 H           1 DQU       0.0515
     18 H5         13.7860   14.8723   18.2169 H           1 DQU       0.1894
     19 H6         14.3577   13.7298   17.1143 H           1 DQU       0.1894
     20 H7         14.7293   14.2774   14.9346 H           1 DQU       0.2503
     21 H8         14.3496   18.1507   12.3217 H           1 DQU       0.0532
@<TRIPOS>BOND
     1     1     2   1
     2     1     3  ar
     3     1    13  ar
     4     3     4  ar
     5     4     5  ar
     6     5     6   1
     7     5    12  ar
     8     6     7   2
     9     7     8   1
    10     7     9  am
    11     9    10  am
    12    10    11   2
    13    10    12   1
    14    12    13  ar
    15     2    14   1
    16     2    15   1
    17     3    16   1
    18     4    17   1
    19     8    18   1
    20     8    19   1
    21     9    20   1
    22    13    21   1
@<TRIPOS>SUBSTRUCTURE
     1  DQU      1

