@<TRIPOS>MOLECULE
1r5y_ligand_003
    21    22
SMALL
GAST_HUCK
****
This file was generated by PARSER (from files_GN.cpp)

@<TRIPOS>ATOM
      1 C6         16.1137   16.2300   20.7134 C.ar        1 DQU       0.0312
      2 N4         15.5617   16.1870   21.9397 N.pl3       1 DQU      -0.3412
      3 C1         15.6044   15.4180   19.6797 C.ar        1 DQU      -0.0487
      4 C2         16.1543   15.4850   18.3884 C.ar        1 DQU      -0.0660
      5 C3         17.2123   16.3738   18.1194 C.ar        1 DQU      -0.0076
      6 N3         17.7301   16.4659   16.8588 N.2         1 DQU      -0.3133
      7 C8         18.7264   17.3416   16.5730 C.2         1 DQU       0.2280
      8 N2         19.2190   17.4183   15.3281 N.pl3       1 DQU      -0.2818
      9 N1         19.2241   18.1353   17.5551 N.am        1 DQU      -0.1802
     10 C7         18.7766   18.0718   18.8072 C.2         1 DQU       0.2303
     11 O1         19.3171   18.8005   19.6260 O.2         1 DQU      -0.3873
     12 C4         17.7439   17.1914   19.1555 C.ar        1 DQU       0.0454
     13 C5         17.1926   17.0999   20.4546 C.ar        1 DQU      -0.0345
     14 H1         14.7758   15.6402   22.0994 H           1 DQU       0.1692
     15 H2         15.9099   16.7518   22.6507 H           1 DQU       0.1692
     16 H3         14.8267   14.7779   19.8636 H           1 DQU       0.0536
     17 H4         15.7752   14.8964   17.6430 H           1 DQU       0.0515
     18 H5         18.9386   16.7778   14.6531 H           1 DQU       0.1894
     19 H6         19.8942   18.0823   15.1167 H           1 DQU       0.1894
     20 H7         19.9525   18.7381   17.3470 H           1 DQU       0.2503
     21 H8         17.5593   17.6835   21.2110 H           1 DQU       0.0532
@<TRIPOS>BOND
     1     1     2   1
     2     1     3  ar
     3     1    13  ar
     4     3     4  ar
     5     4     5  ar
     6     5     6   1
     7     5    12  ar
     8     6     7   2
     9     7     8   1
    10     7     9  am
    11     9    10  am
    12    10    11   2
    13    10    12   1
    14    12    13  ar
    15     2    14   1
    16     2    15   1
    17     3    16   1
    18     4    17   1
    19     8    18   1
    20     8    19   1
    21     9    20   1
    22    13    21   1
@<TRIPOS>SUBSTRUCTURE
     1  DQU      1

