@<TRIPOS>MOLECULE
1r5y_ligand_023
    21    22
SMALL
GAST_HUCK
****
This file was generated by PARSER (from files_GN.cpp)

@<TRIPOS>ATOM
      1 C6         20.1952   15.6610   20.2526 C.ar        1 DQU       0.0312
      2 N4         21.1726   14.9368   19.6756 N.pl3       1 DQU      -0.3412
      3 C1         19.5582   16.6877   19.5327 C.ar        1 DQU      -0.0487
      4 C2         18.5393   17.4453   20.1370 C.ar        1 DQU      -0.0660
      5 C3         18.1512   17.1793   21.4628 C.ar        1 DQU      -0.0076
      6 N3         17.1603   17.9161   22.0523 N.2         1 DQU      -0.3133
      7 C8         16.7715   17.6741   23.3266 C.2         1 DQU       0.2280
      8 N2         15.8011   18.4040   23.8955 N.pl3       1 DQU      -0.2818
      9 N1         17.3754   16.6828   24.0258 N.am        1 DQU      -0.1802
     10 C7         18.3544   15.9437   23.5123 C.2         1 DQU       0.2303
     11 O1         18.8315   15.0743   24.2268 O.2         1 DQU      -0.3873
     12 C4         18.7831   16.1432   22.1976 C.ar        1 DQU       0.0454
     13 C5         19.8005   15.3832   21.5739 C.ar        1 DQU      -0.0345
     14 H1         21.4306   15.1151   18.7576 H           1 DQU       0.1692
     15 H2         21.6047   14.2241   20.1753 H           1 DQU       0.1692
     16 H3         19.8264   16.8877   18.5678 H           1 DQU       0.0536
     17 H4         18.0834   18.1866   19.6028 H           1 DQU       0.0515
     18 H5         15.3734   19.1140   23.3838 H           1 DQU       0.1894
     19 H6         15.5253   18.2233   24.8086 H           1 DQU       0.1894
     20 H7         17.1033   16.5306   24.9422 H           1 DQU       0.2503
     21 H8         20.2606   14.6282   22.0836 H           1 DQU       0.0532
@<TRIPOS>BOND
     1     1     2   1
     2     1     3  ar
     3     1    13  ar
     4     3     4  ar
     5     4     5  ar
     6     5     6   1
     7     5    12  ar
     8     6     7   2
     9     7     8   1
    10     7     9  am
    11     9    10  am
    12    10    11   2
    13    10    12   1
    14    12    13  ar
    15     2    14   1
    16     2    15   1
    17     3    16   1
    18     4    17   1
    19     8    18   1
    20     8    19   1
    21     9    20   1
    22    13    21   1
@<TRIPOS>SUBSTRUCTURE
     1  DQU      1

