@<TRIPOS>MOLECULE
1r5y_ligand_036
    21    22
SMALL
GAST_HUCK
****
This file was generated by PARSER (from files_GN.cpp)

@<TRIPOS>ATOM
      1 C6         16.3260   18.0539    9.4628 C.ar        1 DQU       0.0312
      2 N4         16.0302   17.2763    8.4058 N.pl3       1 DQU      -0.3412
      3 C1         15.4663   19.1102    9.8245 C.ar        1 DQU      -0.0487
      4 C2         15.7686   19.9204   10.9336 C.ar        1 DQU      -0.0660
      5 C3         16.9382   19.6844   11.6817 C.ar        1 DQU      -0.0076
      6 N3         17.2355   20.4750   12.7567 N.2         1 DQU      -0.3133
      7 C8         18.3584   20.2637   13.4864 C.2         1 DQU       0.2280
      8 N2         18.6457   21.0484   14.5357 N.pl3       1 DQU      -0.2818
      9 N1         19.2007   19.2535   13.1487 N.am        1 DQU      -0.1802
     10 C7         18.9630   18.4525   12.1131 C.2         1 DQU       0.2303
     11 O1         19.7876   17.5807   11.8772 O.2         1 DQU      -0.3873
     12 C4         17.8178   18.6250   11.3235 C.ar        1 DQU       0.0454
     13 C5         17.4963   17.8117   10.2112 C.ar        1 DQU      -0.0345
     14 H1         15.2225   17.4371    7.8927 H           1 DQU       0.1692
     15 H2         16.6225   16.5492    8.1566 H           1 DQU       0.1692
     16 H3         14.6130   19.2898    9.2884 H           1 DQU       0.0536
     17 H4         15.1361   20.6827   11.1883 H           1 DQU       0.0515
     18 H5         18.0513   21.7745   14.7829 H           1 DQU       0.1894
     19 H6         19.4593   20.8919   15.0409 H           1 DQU       0.1894
     20 H7         19.9984   19.1181   13.6859 H           1 DQU       0.2503
     21 H8         18.1144   17.0411    9.9416 H           1 DQU       0.0532
@<TRIPOS>BOND
     1     1     2   1
     2     1     3  ar
     3     1    13  ar
     4     3     4  ar
     5     4     5  ar
     6     5     6   1
     7     5    12  ar
     8     6     7   2
     9     7     8   1
    10     7     9  am
    11     9    10  am
    12    10    11   2
    13    10    12   1
    14    12    13  ar
    15     2    14   1
    16     2    15   1
    17     3    16   1
    18     4    17   1
    19     8    18   1
    20     8    19   1
    21     9    20   1
    22    13    21   1
@<TRIPOS>SUBSTRUCTURE
     1  DQU      1

