@<TRIPOS>MOLECULE
1r5y_ligand_049
    21    22
SMALL
GAST_HUCK
****
This file was generated by PARSER (from files_GN.cpp)

@<TRIPOS>ATOM
      1 C6         11.8188   17.5679   17.6008 C.ar        1 DQU       0.0312
      2 N4         11.5304   17.3557   18.8982 N.pl3       1 DQU      -0.3412
      3 C1         11.5062   16.5910   16.6356 C.ar        1 DQU      -0.0487
      4 C2         11.8100   16.8114   15.2801 C.ar        1 DQU      -0.0660
      5 C3         12.4263   18.0125   14.8794 C.ar        1 DQU      -0.0076
      6 N3         12.7155   18.2297   13.5627 N.2         1 DQU      -0.3133
      7 C8         13.3013   19.3840   13.1613 C.2         1 DQU       0.2280
      8 N2         13.5877   19.5748   11.8665 N.pl3       1 DQU      -0.2818
      9 N1         13.5996   20.3434   14.0744 N.am        1 DQU      -0.1802
     10 C7         13.3373   20.1896   15.3690 C.2         1 DQU       0.2303
     11 O1         13.6339   21.1129   16.1129 O.2         1 DQU      -0.3873
     12 C4         12.7454   19.0101   15.8414 C.ar        1 DQU       0.0454
     13 C5         12.4271   18.7748   17.1991 C.ar        1 DQU      -0.0345
     14 H1         11.0767   16.5428   19.1673 H           1 DQU       0.1692
     15 H2         11.7308   18.0377   19.5612 H           1 DQU       0.1692
     16 H3         11.0641   15.7130   16.9174 H           1 DQU       0.0536
     17 H4         11.5867   16.0928   14.5882 H           1 DQU       0.0515
     18 H5         13.3591   18.8984   11.2145 H           1 DQU       0.1894
     19 H6         14.0091   20.4011   11.5790 H           1 DQU       0.1894
     20 H7         14.0189   21.1648   13.7720 H           1 DQU       0.2503
     21 H8         12.6059   19.4953   17.8970 H           1 DQU       0.0532
@<TRIPOS>BOND
     1     1     2   1
     2     1     3  ar
     3     1    13  ar
     4     3     4  ar
     5     4     5  ar
     6     5     6   1
     7     5    12  ar
     8     6     7   2
     9     7     8   1
    10     7     9  am
    11     9    10  am
    12    10    11   2
    13    10    12   1
    14    12    13  ar
    15     2    14   1
    16     2    15   1
    17     3    16   1
    18     4    17   1
    19     8    18   1
    20     8    19   1
    21     9    20   1
    22    13    21   1
@<TRIPOS>SUBSTRUCTURE
     1  DQU      1

