@<TRIPOS>MOLECULE
1r5y_ligand_047
    21    22
SMALL
GAST_HUCK
****
This file was generated by PARSER (from files_GN.cpp)

@<TRIPOS>ATOM
      1 C6         17.1510   19.0470   14.0676 C.ar        1 DQU       0.0312
      2 N4         16.4146   19.2389   15.1756 N.pl3       1 DQU      -0.3412
      3 C1         18.3503   19.7645   13.8846 C.ar        1 DQU      -0.0487
      4 C2         19.1183   19.5734   12.7219 C.ar        1 DQU      -0.0660
      5 C3         18.6921   18.6603   11.7383 C.ar        1 DQU      -0.0076
      6 N3         19.4330   18.4774   10.6048 N.2         1 DQU      -0.3133
      7 C8         19.0384   17.6013    9.6482 C.2         1 DQU       0.2280
      8 N2         19.7819   17.4324    8.5450 N.pl3       1 DQU      -0.2818
      9 N1         17.8931   16.8911    9.8180 N.am        1 DQU      -0.1802
     10 C7         17.1347   17.0244   10.9033 C.2         1 DQU       0.2303
     11 O1         16.1412   16.3161   10.9862 O.2         1 DQU      -0.3873
     12 C4         17.4897   17.9219   11.9178 C.ar        1 DQU       0.0454
     13 C5         16.7241   18.1270   13.0890 C.ar        1 DQU      -0.0345
     14 H1         16.7155   19.8614   15.8544 H           1 DQU       0.1692
     15 H2         15.5872   18.7478   15.3038 H           1 DQU       0.1692
     16 H3         18.6676   20.4314   14.5932 H           1 DQU       0.0536
     17 H4         19.9852   20.1018   12.5956 H           1 DQU       0.0515
     18 H5         20.6008   17.9395    8.4283 H           1 DQU       0.1894
     19 H6         19.5038   16.8002    7.8636 H           1 DQU       0.1894
     20 H7         17.6252   16.2594    9.1307 H           1 DQU       0.2503
     21 H8         15.8532   17.6083   13.2335 H           1 DQU       0.0532
@<TRIPOS>BOND
     1     1     2   1
     2     1     3  ar
     3     1    13  ar
     4     3     4  ar
     5     4     5  ar
     6     5     6   1
     7     5    12  ar
     8     6     7   2
     9     7     8   1
    10     7     9  am
    11     9    10  am
    12    10    11   2
    13    10    12   1
    14    12    13  ar
    15     2    14   1
    16     2    15   1
    17     3    16   1
    18     4    17   1
    19     8    18   1
    20     8    19   1
    21     9    20   1
    22    13    21   1
@<TRIPOS>SUBSTRUCTURE
     1  DQU      1

