@<TRIPOS>MOLECULE
1r5y_ligand_026
    21    22
SMALL
GAST_HUCK
****
This file was generated by PARSER (from files_GN.cpp)

@<TRIPOS>ATOM
      1 C6         12.5994   20.2176   13.1589 C.ar        1 DQU       0.0312
      2 N4         12.2148   21.4751   12.8763 N.pl3       1 DQU      -0.3412
      3 C1         11.7435   19.3658   13.8843 C.ar        1 DQU      -0.0487
      4 C2         12.1474   18.0561   14.2013 C.ar        1 DQU      -0.0660
      5 C3         13.4102   17.5884   13.7884 C.ar        1 DQU      -0.0076
      6 N3         13.8164   16.3236   14.1146 N.2         1 DQU      -0.3133
      7 C8         15.0333   15.8624   13.7328 C.2         1 DQU       0.2280
      8 N2         15.4359   14.6286   14.0736 N.pl3       1 DQU      -0.2818
      9 N1         15.8574   16.6629   13.0089 N.am        1 DQU      -0.1802
     10 C7         15.5164   17.9014   12.6637 C.2         1 DQU       0.2303
     11 O1         16.3287   18.5462   12.0162 O.2         1 DQU      -0.3873
     12 C4         14.2774   18.4339   13.0421 C.ar        1 DQU       0.0454
     13 C5         13.8595   19.7501   12.7338 C.ar        1 DQU      -0.0345
     14 H1         11.3457   21.7953   13.1644 H           1 DQU       0.1692
     15 H2         12.8059   22.0661   12.3834 H           1 DQU       0.1692
     16 H3         10.8240   19.6967   14.1867 H           1 DQU       0.0536
     17 H4         11.5212   17.4502   14.7374 H           1 DQU       0.0515
     18 H5         14.8707   14.0496   14.6099 H           1 DQU       0.1894
     19 H6         16.3139   14.3177   13.8019 H           1 DQU       0.1894
     20 H7         16.7259   16.3217   12.7412 H           1 DQU       0.2503
     21 H8         14.4727   20.3746   12.2031 H           1 DQU       0.0532
@<TRIPOS>BOND
     1     1     2   1
     2     1     3  ar
     3     1    13  ar
     4     3     4  ar
     5     4     5  ar
     6     5     6   1
     7     5    12  ar
     8     6     7   2
     9     7     8   1
    10     7     9  am
    11     9    10  am
    12    10    11   2
    13    10    12   1
    14    12    13  ar
    15     2    14   1
    16     2    15   1
    17     3    16   1
    18     4    17   1
    19     8    18   1
    20     8    19   1
    21     9    20   1
    22    13    21   1
@<TRIPOS>SUBSTRUCTURE
     1  DQU      1

