@<TRIPOS>MOLECULE
1r5y_ligand_061
    21    22
SMALL
GAST_HUCK
****
This file was generated by PARSER (from files_GN.cpp)

@<TRIPOS>ATOM
      1 C6         17.5856   20.0304   14.5534 C.ar        1 DQU       0.0312
      2 N4         18.6315   20.7403   14.0946 N.pl3       1 DQU      -0.3412
      3 C1         17.7445   18.6634   14.8534 C.ar        1 DQU      -0.0487
      4 C2         16.6690   17.9231   15.3758 C.ar        1 DQU      -0.0660
      5 C3         15.4332   18.5527   15.6175 C.ar        1 DQU      -0.0076
      6 N3         14.4159   17.8564   16.2048 N.2         1 DQU      -0.3133
      7 C8         13.2503   18.4645   16.5347 C.2         1 DQU       0.2280
      8 N2         12.3010   17.7557   17.1633 N.pl3       1 DQU      -0.2818
      9 N1         13.0791   19.7852   16.2559 N.am        1 DQU      -0.1802
     10 C7         14.0199   20.5015   15.6439 C.2         1 DQU       0.2303
     11 O1         13.7801   21.6834   15.4428 O.2         1 DQU      -0.3873
     12 C4         15.2567   19.9306   15.3139 C.ar        1 DQU       0.0454
     13 C5         16.3404   20.6570   14.7662 C.ar        1 DQU      -0.0345
     14 H1         19.5063   20.3251   14.0293 H           1 DQU       0.1692
     15 H2         18.5305   21.6854   13.9005 H           1 DQU       0.1692
     16 H3         18.6463   18.2037   14.7026 H           1 DQU       0.0536
     17 H4         16.7982   16.9340   15.6039 H           1 DQU       0.0515
     18 H5         12.4490   16.8177   17.3636 H           1 DQU       0.1894
     19 H6         11.4772   18.1810   17.4414 H           1 DQU       0.1894
     20 H7         12.2688   20.2411   16.5417 H           1 DQU       0.2503
     21 H8         16.2382   21.6534   14.5557 H           1 DQU       0.0532
@<TRIPOS>BOND
     1     1     2   1
     2     1     3  ar
     3     1    13  ar
     4     3     4  ar
     5     4     5  ar
     6     5     6   1
     7     5    12  ar
     8     6     7   2
     9     7     8   1
    10     7     9  am
    11     9    10  am
    12    10    11   2
    13    10    12   1
    14    12    13  ar
    15     2    14   1
    16     2    15   1
    17     3    16   1
    18     4    17   1
    19     8    18   1
    20     8    19   1
    21     9    20   1
    22    13    21   1
@<TRIPOS>SUBSTRUCTURE
     1  DQU      1

