@<TRIPOS>MOLECULE
1r5y_ligand_012
    21    22
SMALL
GAST_HUCK
****
This file was generated by PARSER (from files_GN.cpp)

@<TRIPOS>ATOM
      1 C6         15.6311   15.3890   16.9690 C.ar        1 DQU       0.0312
      2 N4         14.8396   14.4905   17.5782 N.pl3       1 DQU      -0.3412
      3 C1         16.4318   16.2589   17.7352 C.ar        1 DQU      -0.0487
      4 C2         17.2865   17.1762   17.0988 C.ar        1 DQU      -0.0660
      5 C3         17.3366   17.2303   15.6933 C.ar        1 DQU      -0.0076
      6 N3         18.1745   18.1121   15.0785 N.2         1 DQU      -0.3133
      7 C8         18.2434   18.1854   13.7274 C.2         1 DQU       0.2280
      8 N2         19.0745   19.0694   13.1564 N.pl3       1 DQU      -0.2818
      9 N1         17.4687   17.3653   12.9698 N.am        1 DQU      -0.1802
     10 C7         16.6371   16.4786   13.5127 C.2         1 DQU       0.2303
     11 O1         15.9891   15.7739   12.7499 O.2         1 DQU      -0.3873
     12 C4         16.5250   16.3672   14.9063 C.ar        1 DQU       0.0454
     13 C5         15.6746   15.4453   15.5599 C.ar        1 DQU      -0.0345
     14 H1         14.7978   14.4457   18.5465 H           1 DQU       0.1692
     15 H2         14.3796   13.8300   17.0410 H           1 DQU       0.1692
     16 H3         16.4071   16.2201   18.7567 H           1 DQU       0.0536
     17 H4         17.8739   17.7972   17.6620 H           1 DQU       0.0515
     18 H5         19.6425   19.6245   13.7153 H           1 DQU       0.1894
     19 H6         19.1242   19.1407   12.1900 H           1 DQU       0.1894
     20 H7         17.5275   17.4256   12.0029 H           1 DQU       0.2503
     21 H8         15.0891   14.8088   15.0125 H           1 DQU       0.0532
@<TRIPOS>BOND
     1     1     2   1
     2     1     3  ar
     3     1    13  ar
     4     3     4  ar
     5     4     5  ar
     6     5     6   1
     7     5    12  ar
     8     6     7   2
     9     7     8   1
    10     7     9  am
    11     9    10  am
    12    10    11   2
    13    10    12   1
    14    12    13  ar
    15     2    14   1
    16     2    15   1
    17     3    16   1
    18     4    17   1
    19     8    18   1
    20     8    19   1
    21     9    20   1
    22    13    21   1
@<TRIPOS>SUBSTRUCTURE
     1  DQU      1

