@<TRIPOS>MOLECULE
1r5y_ligand_020
    21    22
SMALL
GAST_HUCK
****
This file was generated by PARSER (from files_GN.cpp)

@<TRIPOS>ATOM
      1 C6         13.6008   15.8056   14.6967 C.ar        1 DQU       0.0312
      2 N4         13.2483   14.7611   15.4671 N.pl3       1 DQU      -0.3412
      3 C1         14.5993   15.6510   13.7145 C.ar        1 DQU      -0.0487
      4 C2         14.9699   16.7388   12.9037 C.ar        1 DQU      -0.0660
      5 C3         14.3431   17.9882   13.0709 C.ar        1 DQU      -0.0076
      6 N3         14.7022   19.0458   12.2838 N.2         1 DQU      -0.3133
      7 C8         14.1108   20.2568   12.4306 C.2         1 DQU       0.2280
      8 N2         14.4764   21.2820   11.6471 N.pl3       1 DQU      -0.2818
      9 N1         13.1470   20.4240   13.3728 N.am        1 DQU      -0.1802
     10 C7         12.7574   19.4305   14.1668 C.2         1 DQU       0.2303
     11 O1         11.8818   19.6749   14.9842 O.2         1 DQU      -0.3873
     12 C4         13.3345   18.1583   14.0590 C.ar        1 DQU       0.0454
     13 C5         12.9714   17.0557   14.8680 C.ar        1 DQU      -0.0345
     14 H1         13.6805   13.9010   15.3486 H           1 DQU       0.1692
     15 H2         12.5605   14.8647   16.1437 H           1 DQU       0.1692
     16 H3         15.0602   14.7465   13.5840 H           1 DQU       0.0536
     17 H4         15.6954   16.6161   12.1925 H           1 DQU       0.0515
     18 H5         15.1648   21.1584   10.9747 H           1 DQU       0.1894
     19 H6         14.0517   22.1484   11.7497 H           1 DQU       0.1894
     20 H7         12.7299   21.2950   13.4692 H           1 DQU       0.2503
     21 H8         12.2470   17.1588   15.5840 H           1 DQU       0.0532
@<TRIPOS>BOND
     1     1     2   1
     2     1     3  ar
     3     1    13  ar
     4     3     4  ar
     5     4     5  ar
     6     5     6   1
     7     5    12  ar
     8     6     7   2
     9     7     8   1
    10     7     9  am
    11     9    10  am
    12    10    11   2
    13    10    12   1
    14    12    13  ar
    15     2    14   1
    16     2    15   1
    17     3    16   1
    18     4    17   1
    19     8    18   1
    20     8    19   1
    21     9    20   1
    22    13    21   1
@<TRIPOS>SUBSTRUCTURE
     1  DQU      1

