@<TRIPOS>MOLECULE
1r5y_ligand_053
    21    22
SMALL
GAST_HUCK
****
This file was generated by PARSER (from files_GN.cpp)

@<TRIPOS>ATOM
      1 C6         12.8626   14.9037   15.1023 C.ar        1 DQU       0.0312
      2 N4         13.3565   14.1224   14.1280 N.pl3       1 DQU      -0.3412
      3 C1         11.6756   15.6399   14.9071 C.ar        1 DQU      -0.0487
      4 C2         11.1589   16.4360   15.9455 C.ar        1 DQU      -0.0660
      5 C3         11.8353   16.5162   17.1792 C.ar        1 DQU      -0.0076
      6 N3         11.3426   17.2928   18.1896 N.2         1 DQU      -0.3133
      7 C8         11.9762   17.3611   19.3871 C.2         1 DQU       0.2280
      8 N2         11.4701   18.1061   20.3796 N.pl3       1 DQU      -0.2818
      9 N1         13.1266   16.6710   19.5788 N.am        1 DQU      -0.1802
     10 C7         13.6596   15.9039   18.6326 C.2         1 DQU       0.2303
     11 O1         14.6928   15.3108   18.9033 O.2         1 DQU      -0.3873
     12 C4         13.0369   15.7823   17.3830 C.ar        1 DQU       0.0454
     13 C5         13.5368   14.9780   16.3355 C.ar        1 DQU      -0.0345
     14 H1         12.9180   14.0710   13.2638 H           1 DQU       0.1692
     15 H2         14.1198   13.5616   14.3234 H           1 DQU       0.1692
     16 H3         11.1723   15.5840   14.0166 H           1 DQU       0.0536
     17 H4         10.2875   16.9525   15.8001 H           1 DQU       0.0515
     18 H5         10.6835   18.6442   20.2308 H           1 DQU       0.1894
     19 H6         11.9009   18.1184   21.2447 H           1 DQU       0.1894
     20 H7         13.5700   16.7273   20.4400 H           1 DQU       0.2503
     21 H8         14.4053   14.4479   16.4674 H           1 DQU       0.0532
@<TRIPOS>BOND
     1     1     2   1
     2     1     3  ar
     3     1    13  ar
     4     3     4  ar
     5     4     5  ar
     6     5     6   1
     7     5    12  ar
     8     6     7   2
     9     7     8   1
    10     7     9  am
    11     9    10  am
    12    10    11   2
    13    10    12   1
    14    12    13  ar
    15     2    14   1
    16     2    15   1
    17     3    16   1
    18     4    17   1
    19     8    18   1
    20     8    19   1
    21     9    20   1
    22    13    21   1
@<TRIPOS>SUBSTRUCTURE
     1  DQU      1

