@<TRIPOS>MOLECULE
1r5y_ligand_004
    21    22
SMALL
GAST_HUCK
****
This file was generated by PARSER (from files_GN.cpp)

@<TRIPOS>ATOM
      1 C6         17.7590   17.1496   17.9540 C.ar        1 DQU       0.0312
      2 N4         17.3758   17.3513   16.6807 N.pl3       1 DQU      -0.3412
      3 C1         19.1150   16.9130   18.2539 C.ar        1 DQU      -0.0487
      4 C2         19.5212   16.7072   19.5848 C.ar        1 DQU      -0.0660
      5 C3         18.5700   16.7313   20.6222 C.ar        1 DQU      -0.0076
      6 N3         18.9637   16.5416   21.9156 N.2         1 DQU      -0.3133
      7 C8         18.0640   16.5569   22.9280 C.2         1 DQU       0.2280
      8 N2         18.4778   16.3691   24.1886 N.pl3       1 DQU      -0.2818
      9 N1         16.7527   16.7854   22.6598 N.am        1 DQU      -0.1802
     10 C7         16.3130   16.9872   21.4212 C.2         1 DQU       0.2303
     11 O1         15.1276   17.2490   21.2777 O.2         1 DQU      -0.3873
     12 C4         17.1972   16.9689   20.3347 C.ar        1 DQU       0.0454
     13 C5         16.8043   17.1778   18.9915 C.ar        1 DQU      -0.0345
     14 H1         18.0311   17.3264   15.9644 H           1 DQU       0.1692
     15 H2         16.4428   17.5216   16.4748 H           1 DQU       0.1692
     16 H3         19.8137   16.8929   17.5059 H           1 DQU       0.0536
     17 H4         20.5091   16.5414   19.7943 H           1 DQU       0.0515
     18 H5         19.4144   16.2064   24.3712 H           1 DQU       0.1894
     19 H6         17.8511   16.4286   24.9250 H           1 DQU       0.1894
     20 H7         16.1201   16.8135   23.3960 H           1 DQU       0.2503
     21 H8         15.8222   17.3582   18.7649 H           1 DQU       0.0532
@<TRIPOS>BOND
     1     1     2   1
     2     1     3  ar
     3     1    13  ar
     4     3     4  ar
     5     4     5  ar
     6     5     6   1
     7     5    12  ar
     8     6     7   2
     9     7     8   1
    10     7     9  am
    11     9    10  am
    12    10    11   2
    13    10    12   1
    14    12    13  ar
    15     2    14   1
    16     2    15   1
    17     3    16   1
    18     4    17   1
    19     8    18   1
    20     8    19   1
    21     9    20   1
    22    13    21   1
@<TRIPOS>SUBSTRUCTURE
     1  DQU      1

