@<TRIPOS>MOLECULE
1r5y_ligand_051
    21    22
SMALL
GAST_HUCK
****
This file was generated by PARSER (from files_GN.cpp)

@<TRIPOS>ATOM
      1 C6         20.4061   21.8761   10.9030 C.ar        1 DQU       0.0312
      2 N4         20.2182   23.2054   10.9842 N.pl3       1 DQU      -0.3412
      3 C1         21.1073   21.3306    9.8098 C.ar        1 DQU      -0.0487
      4 C2         21.3083   19.9417    9.7184 C.ar        1 DQU      -0.0660
      5 C3         20.8083   19.0898   10.7216 C.ar        1 DQU      -0.0076
      6 N3         21.0044   17.7396   10.6345 N.2         1 DQU      -0.3133
      7 C8         20.5311   16.9059   11.5926 C.2         1 DQU       0.2280
      8 N2         20.7238   15.5821   11.5028 N.pl3       1 DQU      -0.2818
      9 N1         19.8522   17.4149   12.6514 N.am        1 DQU      -0.1802
     10 C7         19.6267   18.7187   12.7874 C.2         1 DQU       0.2303
     11 O1         18.9947   19.0794   13.7699 O.2         1 DQU      -0.3873
     12 C4         20.0967   19.6274   11.8303 C.ar        1 DQU       0.0454
     13 C5         19.9027   21.0266   11.9099 C.ar        1 DQU      -0.0345
     14 H1         20.5652   23.7891   10.2908 H           1 DQU       0.1692
     15 H2         19.7358   23.5849   11.7356 H           1 DQU       0.1692
     16 H3         21.4751   21.9409    9.0756 H           1 DQU       0.0536
     17 H4         21.8187   19.5555    8.9203 H           1 DQU       0.0515
     18 H5         21.2005   15.2064   10.7460 H           1 DQU       0.1894
     19 H6         20.3779   15.0016   12.1996 H           1 DQU       0.1894
     20 H7         19.5175   16.8000   13.3228 H           1 DQU       0.2503
     21 H8         19.3950   21.4317   12.7009 H           1 DQU       0.0532
@<TRIPOS>BOND
     1     1     2   1
     2     1     3  ar
     3     1    13  ar
     4     3     4  ar
     5     4     5  ar
     6     5     6   1
     7     5    12  ar
     8     6     7   2
     9     7     8   1
    10     7     9  am
    11     9    10  am
    12    10    11   2
    13    10    12   1
    14    12    13  ar
    15     2    14   1
    16     2    15   1
    17     3    16   1
    18     4    17   1
    19     8    18   1
    20     8    19   1
    21     9    20   1
    22    13    21   1
@<TRIPOS>SUBSTRUCTURE
     1  DQU      1

