@<TRIPOS>MOLECULE
1r5y_ligand_008
    21    22
SMALL
GAST_HUCK
****
This file was generated by PARSER (from files_GN.cpp)

@<TRIPOS>ATOM
      1 C6         14.8789   15.4736   18.8404 C.ar        1 DQU       0.0312
      2 N4         13.6798   14.8660   18.7961 N.pl3       1 DQU      -0.3412
      3 C1         15.7051   15.5226   17.6995 C.ar        1 DQU      -0.0487
      4 C2         16.9483   16.1795   17.7558 C.ar        1 DQU      -0.0660
      5 C3         17.3836   16.7715   18.9581 C.ar        1 DQU      -0.0076
      6 N3         18.5872   17.4086   19.0141 N.2         1 DQU      -0.3133
      7 C8         19.0120   17.9939   20.1576 C.2         1 DQU       0.2280
      8 N2         20.1822   18.6450   20.1992 N.pl3       1 DQU      -0.2818
      9 N1         18.2349   17.9389   21.2691 N.am        1 DQU      -0.1802
     10 C7         17.0540   17.3287   21.2757 C.2         1 DQU       0.2303
     11 O1         16.4191   17.3455   22.3184 O.2         1 DQU      -0.3873
     12 C4         16.5622   16.7211   20.1149 C.ar        1 DQU       0.0454
     13 C5         15.3111   16.0731   20.0421 C.ar        1 DQU      -0.0345
     14 H1         13.3720   14.4417   17.9756 H           1 DQU       0.1692
     15 H2         13.1214   14.8690   19.5877 H           1 DQU       0.1692
     16 H3         15.4009   15.0902   16.8217 H           1 DQU       0.0536
     17 H4         17.5306   16.2349   16.9172 H           1 DQU       0.0515
     18 H5         20.7536   18.6732   19.4168 H           1 DQU       0.1894
     19 H6         20.4368   19.1317   20.9971 H           1 DQU       0.1894
     20 H7         18.5440   18.3682   22.0826 H           1 DQU       0.2503
     21 H8         14.7108   16.0312   20.8686 H           1 DQU       0.0532
@<TRIPOS>BOND
     1     1     2   1
     2     1     3  ar
     3     1    13  ar
     4     3     4  ar
     5     4     5  ar
     6     5     6   1
     7     5    12  ar
     8     6     7   2
     9     7     8   1
    10     7     9  am
    11     9    10  am
    12    10    11   2
    13    10    12   1
    14    12    13  ar
    15     2    14   1
    16     2    15   1
    17     3    16   1
    18     4    17   1
    19     8    18   1
    20     8    19   1
    21     9    20   1
    22    13    21   1
@<TRIPOS>SUBSTRUCTURE
     1  DQU      1

