@<TRIPOS>MOLECULE
1r5y_ligand_015
    21    22
SMALL
GAST_HUCK
****
This file was generated by PARSER (from files_GN.cpp)

@<TRIPOS>ATOM
      1 C6         18.2191   18.4125   15.2908 C.ar        1 DQU       0.0312
      2 N4         18.6262   19.2852   14.3514 N.pl3       1 DQU      -0.3412
      3 C1         18.8735   18.3519   16.5373 C.ar        1 DQU      -0.0487
      4 C2         18.4367   17.4513   17.5228 C.ar        1 DQU      -0.0660
      5 C3         17.3542   16.5871   17.2587 C.ar        1 DQU      -0.0076
      6 N3         16.9538   15.6795   18.2016 N.2         1 DQU      -0.3133
      7 C8         15.9549   14.8018   17.9388 C.2         1 DQU       0.2280
      8 N2         15.5779   13.9040   18.8622 N.pl3       1 DQU      -0.2818
      9 N1         15.3486   14.8207   16.7237 N.am        1 DQU      -0.1802
     10 C7         15.6749   15.6995   15.7789 C.2         1 DQU       0.2303
     11 O1         15.0682   15.6365   14.7197 O.2         1 DQU      -0.3873
     12 C4         16.7018   16.6240   15.9955 C.ar        1 DQU       0.0454
     13 C5         17.1367   17.5517   15.0221 C.ar        1 DQU      -0.0345
     14 H1         19.3880   19.8594   14.5266 H           1 DQU       0.1692
     15 H2         18.1779   19.3268   13.4915 H           1 DQU       0.1692
     16 H3         19.6602   18.9723   16.7408 H           1 DQU       0.0536
     17 H4         18.9184   17.4131   18.4260 H           1 DQU       0.0515
     18 H5         15.9964   13.9011   19.7353 H           1 DQU       0.1894
     19 H6         14.8682   13.2731   18.6640 H           1 DQU       0.1894
     20 H7         14.6875   14.1423   16.5244 H           1 DQU       0.2503
     21 H8         16.6762   17.5949   14.1100 H           1 DQU       0.0532
@<TRIPOS>BOND
     1     1     2   1
     2     1     3  ar
     3     1    13  ar
     4     3     4  ar
     5     4     5  ar
     6     5     6   1
     7     5    12  ar
     8     6     7   2
     9     7     8   1
    10     7     9  am
    11     9    10  am
    12    10    11   2
    13    10    12   1
    14    12    13  ar
    15     2    14   1
    16     2    15   1
    17     3    16   1
    18     4    17   1
    19     8    18   1
    20     8    19   1
    21     9    20   1
    22    13    21   1
@<TRIPOS>SUBSTRUCTURE
     1  DQU      1

