@<TRIPOS>MOLECULE
1sln_ligand_030
    70    71
SMALL
GAST_HUCK
****
This file was generated by PARSER (from files_GN.cpp)

@<TRIPOS>ATOM
      1 C1        -24.6509   92.2221   80.7309 C.3         1 INH      -0.0094
      2 C2        -23.4753   91.4797   81.4261 C.3         1 INH       0.0293
      3 C3        -22.5865   92.3823   82.1958 C.2         1 INH       0.0842
      4 O4        -22.4115   93.6832   81.8582 O.co2       1 INH      -0.5643
      5 O5        -22.0426   91.9563   83.3660 O.co2       1 INH      -0.5643
      6 N6        -22.7140   90.5212   80.5618 N.4         1 INH       0.2597
      7 C7        -22.0291   90.8807   79.2800 C.3         1 INH       0.0701
      8 C8        -23.0136   90.9010   78.0664 C.3         1 INH       0.0177
      9 C9        -22.3430   90.6763   76.6812 C.3         1 INH      -0.0119
     10 C10       -23.3086   90.7329   75.5515 C.ar        1 INH      -0.0427
     11 C11       -23.5032   89.6219   74.6931 C.ar        1 INH      -0.0603
     12 C12       -24.4308   89.6890   73.6403 C.ar        1 INH      -0.0686
     13 C13       -25.1797   90.8627   73.4280 C.ar        1 INH      -0.0687
     14 C14       -24.9938   91.9733   74.2706 C.ar        1 INH      -0.0686
     15 C15       -24.0677   91.9051   75.3308 C.ar        1 INH      -0.0603
     16 C16       -21.1583   92.0406   79.4377 C.2         1 INH       0.2270
     17 O17       -21.5376   93.1383   79.0404 O.2         1 INH      -0.3907
     18 N18       -20.0389   91.9191   80.1435 N.am        1 INH      -0.2605
     19 C19       -19.2411   93.0009   80.6509 C.3         1 INH       0.1369
     20 C20       -18.3586   92.5289   81.8613 C.3         1 INH      -0.0087
     21 C21       -17.6804   93.7066   82.6319 C.3         1 INH      -0.0156
     22 C22       -16.2468   93.4440   83.1902 C.3         1 INH       0.0627
     23 N23       -16.1316   93.2607   84.5782 N.pl3       1 INH      -0.2723
     24 C24       -16.4421   94.0819   85.5115 C.cat       1 INH       0.2882
     25 N25       -16.1595   93.7578   86.7159 N.pl3       1 INH      -0.2849
     26 N26       -17.0360   95.2074   85.3215 N.pl3       1 INH      -0.2849
     27 C27       -18.4231   93.5877   79.5891 C.2         1 INH       0.2292
     28 O28       -17.4511   92.9506   79.1826 O.2         1 INH      -0.3823
     29 N29       -18.7256   94.7790   79.0881 N.am        1 INH      -0.2320
     30 C30       -17.9666   95.4608   78.1925 C.ar        1 INH       0.0663
     31 C31       -16.7799   96.1063   78.6181 C.ar        1 INH      -0.0413
     32 C32       -16.0080   96.8439   77.6989 C.ar        1 INH      -0.0755
     33 C33       -16.4054   96.9297   76.3529 C.ar        1 INH      -0.0772
     34 C34       -17.5867   96.2881   75.9247 C.ar        1 INH      -0.0755
     35 C35       -18.3683   95.5635   76.8463 C.ar        1 INH      -0.0413
     36 H1        -25.2450   92.7648   81.4769 H           1 INH       0.0303
     37 H2        -25.3084   91.4959   80.2371 H           1 INH       0.0303
     38 H3        -24.2791   92.9358   79.9823 H           1 INH       0.0303
     39 H4        -23.9570   90.8463   82.1810 H           1 INH       0.1023
     40 H5        -23.3670   89.7638   80.3329 H           1 INH       0.2052
     41 H6        -21.9981   90.1092   81.1630 H           1 INH       0.2052
     42 H7        -21.3707   90.0297   79.0755 H           1 INH       0.1101
     43 H8        -23.5590   91.8552   78.0437 H           1 INH       0.0368
     44 H9        -23.7616   90.1099   78.2152 H           1 INH       0.0368
     45 H10       -21.8276   89.7125   76.7045 H           1 INH       0.0429
     46 H11       -21.5746   91.4376   76.5186 H           1 INH       0.0429
     47 H12       -22.9772   88.7570   74.8365 H           1 INH       0.0557
     48 H13       -24.5614   88.8858   73.0228 H           1 INH       0.0599
     49 H14       -25.8529   90.9039   72.6624 H           1 INH       0.0559
     50 H15       -25.5252   92.8257   74.1084 H           1 INH       0.0599
     51 H16       -23.9291   92.7251   75.9253 H           1 INH       0.0557
     52 H17       -19.7915   91.0206   80.4251 H           1 INH       0.1885
     53 H18       -19.9431   93.7490   81.0474 H           1 INH       0.0805
     54 H19       -17.6113   91.8180   81.4927 H           1 INH       0.0314
     55 H20       -18.9942   91.9832   82.5669 H           1 INH       0.0314
     56 H21       -18.3514   94.0080   83.4434 H           1 INH       0.0301
     57 H22       -17.6064   94.5798   81.9668 H           1 INH       0.0301
     58 H23       -15.5962   94.2775   82.9037 H           1 INH       0.0689
     59 H24       -15.8275   92.5522   82.7159 H           1 INH       0.0689
     60 H25       -15.7096   92.4749   84.8541 H           1 INH       0.2642
     61 H26       -16.3977   94.3138   87.4299 H           1 INH       0.2615
     62 H27       -15.7354   92.9480   86.8843 H           1 INH       0.2615
     63 H28       -17.2367   95.4896   84.4545 H           1 INH       0.2615
     64 H29       -17.2778   95.7331   86.0496 H           1 INH       0.2615
     65 H30       -19.5613   95.1981   79.3635 H           1 INH       0.2257
     66 H31       -16.4861   96.0605   79.5948 H           1 INH       0.0502
     67 H32       -15.1559   97.3113   78.0152 H           1 INH       0.0577
     68 H33       -15.8414   97.4580   75.6871 H           1 INH       0.0487
     69 H34       -17.8740   96.3527   74.9462 H           1 INH       0.0577
     70 H35       -19.2311   95.1098   76.5287 H           1 INH       0.0502
@<TRIPOS>BOND
     1     1     2   1
     2     2     6   1
     3     2     3   1
     4     3     5  ar
     5     3     4  ar
     6     6     7   1
     7     7    16   1
     8     7     8   1
     9     8     9   1
    10     9    10   1
    11    10    15  ar
    12    10    11  ar
    13    11    12  ar
    14    12    13  ar
    15    13    14  ar
    16    14    15  ar
    17    16    18  am
    18    16    17   2
    19    18    19   1
    20    19    27   1
    21    19    20   1
    22    20    21   1
    23    21    22   1
    24    22    23   1
    25    23    24  ar
    26    24    26  ar
    27    24    25  ar
    28    27    29  am
    29    27    28   2
    30    29    30   1
    31    30    35  ar
    32    30    31  ar
    33    31    32  ar
    34    32    33  ar
    35    33    34  ar
    36    34    35  ar
    37     1    36   1
    38     1    37   1
    39     1    38   1
    40     2    39   1
    41     6    40   1
    42     6    41   1
    43     7    42   1
    44     8    43   1
    45     8    44   1
    46     9    45   1
    47     9    46   1
    48    11    47   1
    49    12    48   1
    50    13    49   1
    51    14    50   1
    52    15    51   1
    53    18    52   1
    54    19    53   1
    55    20    54   1
    56    20    55   1
    57    21    56   1
    58    21    57   1
    59    22    58   1
    60    22    59   1
    61    23    60   1
    62    25    61   1
    63    25    62   1
    64    26    63   1
    65    26    64   1
    66    29    65   1
    67    31    66   1
    68    32    67   1
    69    33    68   1
    70    34    69   1
    71    35    70   1
@<TRIPOS>SUBSTRUCTURE
     1  INH      1

