@<TRIPOS>MOLECULE
1sln_ligand_044
    70    71
SMALL
GAST_HUCK
****
This file was generated by PARSER (from files_GN.cpp)

@<TRIPOS>ATOM
      1 C1        -19.5547   92.1503   79.8984 C.3         1 INH      -0.0094
      2 C2        -19.7092   92.2144   81.4426 C.3         1 INH       0.0293
      3 C3        -21.0911   92.5862   81.8371 C.2         1 INH       0.0842
      4 O4        -22.0319   92.9782   80.9473 O.co2       1 INH      -0.5643
      5 O5        -21.4159   92.6270   83.1461 O.co2       1 INH      -0.5643
      6 N6        -18.7875   93.1735   82.1288 N.4         1 INH       0.2597
      7 C7        -17.3189   93.2018   81.8440 C.3         1 INH       0.0701
      8 C8        -16.5541   91.9386   82.3635 C.3         1 INH       0.0177
      9 C9        -16.7254   91.6547   83.8871 C.3         1 INH      -0.0119
     10 C10       -16.1460   92.7305   84.7372 C.ar        1 INH      -0.0427
     11 C11       -16.8852   93.8977   85.0541 C.ar        1 INH      -0.0603
     12 C12       -16.3033   94.9242   85.8213 C.ar        1 INH      -0.0686
     13 C13       -14.9905   94.7909   86.3037 C.ar        1 INH      -0.0687
     14 C14       -14.2517   93.6305   86.0067 C.ar        1 INH      -0.0686
     15 C15       -14.8159   92.6173   85.2156 C.ar        1 INH      -0.0603
     16 C16       -17.0742   93.5618   80.4524 C.2         1 INH       0.2270
     17 O17       -16.4547   92.8060   79.7176 O.2         1 INH      -0.3907
     18 N18       -17.5685   94.7062   79.9880 N.am        1 INH      -0.2605
     19 C19       -17.5041   95.2288   78.6443 C.3         1 INH       0.1369
     20 C20       -18.9075   95.7676   78.2141 C.3         1 INH      -0.0087
     21 C21       -19.6108   96.7184   79.2426 C.3         1 INH      -0.0156
     22 C22       -20.6706   97.6955   78.6463 C.3         1 INH       0.0627
     23 N23       -20.2726   99.0405   78.6887 N.pl3       1 INH      -0.2723
     24 C24       -20.1204   99.7726   79.7338 C.cat       1 INH       0.2882
     25 N25       -19.7101  100.9722   79.5819 N.pl3       1 INH      -0.2849
     26 N26       -20.3429   99.3706   80.9332 N.pl3       1 INH      -0.2849
     27 C27       -16.4839   96.2641   78.4830 C.2         1 INH       0.2292
     28 O28       -15.8719   96.2795   77.4216 O.2         1 INH      -0.3823
     29 N29       -16.2124   97.1405   79.4452 N.am        1 INH      -0.2320
     30 C30       -15.3783   98.2186   79.3980 C.ar        1 INH       0.0663
     31 C31       -15.3620   99.1320   78.3132 C.ar        1 INH      -0.0413
     32 C32       -14.5351  100.2693   78.3501 C.ar        1 INH      -0.0755
     33 C33       -13.7225  100.5129   79.4701 C.ar        1 INH      -0.0772
     34 C34       -13.7421   99.6245   80.5585 C.ar        1 INH      -0.0755
     35 C35       -14.5736   98.4894   80.5256 C.ar        1 INH      -0.0413
     36 H1        -20.3612   91.5546   79.4586 H           1 INH       0.0303
     37 H2        -18.6188   91.6602   79.6320 H           1 INH       0.0303
     38 H3        -19.5795   93.1555   79.4673 H           1 INH       0.0303
     39 H4        -19.5416   91.2084   81.8320 H           1 INH       0.1023
     40 H5        -18.8756   92.9947   83.1281 H           1 INH       0.2052
     41 H6        -19.1573   94.1131   81.9719 H           1 INH       0.2052
     42 H7        -16.9292   94.0425   82.4270 H           1 INH       0.1101
     43 H8        -15.4849   92.0591   82.1463 H           1 INH       0.0368
     44 H9        -16.8908   91.0631   81.8029 H           1 INH       0.0368
     45 H10       -16.2338   90.7079   84.1222 H           1 INH       0.0429
     46 H11       -17.7817   91.5096   84.1156 H           1 INH       0.0429
     47 H12       -17.8415   94.0118   84.7124 H           1 INH       0.0557
     48 H13       -16.8321   95.7745   86.0214 H           1 INH       0.0599
     49 H14       -14.5721   95.5325   86.8646 H           1 INH       0.0559
     50 H15       -13.2977   93.5311   86.3595 H           1 INH       0.0599
     51 H16       -14.2571   91.7893   84.9928 H           1 INH       0.0557
     52 H17       -18.0384   95.2568   80.6336 H           1 INH       0.1885
     53 H18       -17.2591   94.4160   77.9487 H           1 INH       0.0805
     54 H19       -19.5697   94.9114   78.0441 H           1 INH       0.0314
     55 H20       -18.8106   96.2657   77.2445 H           1 INH       0.0314
     56 H21       -18.8574   97.2963   79.7810 H           1 INH       0.0301
     57 H22       -20.0997   96.0911   79.9935 H           1 INH       0.0301
     58 H23       -21.6229   97.5797   79.1745 H           1 INH       0.0689
     59 H24       -20.8713   97.4410   77.6014 H           1 INH       0.0689
     60 H25       -20.0980   99.4511   77.8665 H           1 INH       0.2642
     61 H26       -19.5789  101.5182   80.3288 H           1 INH       0.2615
     62 H27       -19.5232  101.2984   78.7266 H           1 INH       0.2615
     63 H28       -20.6473   98.5015   81.0885 H           1 INH       0.2615
     64 H29       -20.2115   99.9547   81.6494 H           1 INH       0.2615
     65 H30       -16.6634   96.9935   80.2936 H           1 INH       0.2257
     66 H31       -15.9747   98.9952   77.5081 H           1 INH       0.0502
     67 H32       -14.5337  100.9231   77.5663 H           1 INH       0.0577
     68 H33       -13.1240  101.3378   79.4989 H           1 INH       0.0487
     69 H34       -13.1574   99.8011   81.3801 H           1 INH       0.0577
     70 H35       -14.5834   97.8527   81.3279 H           1 INH       0.0502
@<TRIPOS>BOND
     1     1     2   1
     2     2     6   1
     3     2     3   1
     4     3     5  ar
     5     3     4  ar
     6     6     7   1
     7     7    16   1
     8     7     8   1
     9     8     9   1
    10     9    10   1
    11    10    15  ar
    12    10    11  ar
    13    11    12  ar
    14    12    13  ar
    15    13    14  ar
    16    14    15  ar
    17    16    18  am
    18    16    17   2
    19    18    19   1
    20    19    27   1
    21    19    20   1
    22    20    21   1
    23    21    22   1
    24    22    23   1
    25    23    24  ar
    26    24    26  ar
    27    24    25  ar
    28    27    29  am
    29    27    28   2
    30    29    30   1
    31    30    35  ar
    32    30    31  ar
    33    31    32  ar
    34    32    33  ar
    35    33    34  ar
    36    34    35  ar
    37     1    36   1
    38     1    37   1
    39     1    38   1
    40     2    39   1
    41     6    40   1
    42     6    41   1
    43     7    42   1
    44     8    43   1
    45     8    44   1
    46     9    45   1
    47     9    46   1
    48    11    47   1
    49    12    48   1
    50    13    49   1
    51    14    50   1
    52    15    51   1
    53    18    52   1
    54    19    53   1
    55    20    54   1
    56    20    55   1
    57    21    56   1
    58    21    57   1
    59    22    58   1
    60    22    59   1
    61    23    60   1
    62    25    61   1
    63    25    62   1
    64    26    63   1
    65    26    64   1
    66    29    65   1
    67    31    66   1
    68    32    67   1
    69    33    68   1
    70    34    69   1
    71    35    70   1
@<TRIPOS>SUBSTRUCTURE
     1  INH      1

