@<TRIPOS>MOLECULE
1sln_ligand_010
    70    71
SMALL
GAST_HUCK
****
This file was generated by PARSER (from files_GN.cpp)

@<TRIPOS>ATOM
      1 C1        -24.2466   89.5637   81.4829 C.3         1 INH      -0.0094
      2 C2        -23.8324   90.0078   82.9150 C.3         1 INH       0.0293
      3 C3        -24.9212   90.7389   83.6050 C.2         1 INH       0.0842
      4 O4        -25.5165   90.2188   84.7048 O.co2       1 INH      -0.5643
      5 O5        -25.3588   91.9464   83.1652 O.co2       1 INH      -0.5643
      6 N6        -22.5387   90.7309   83.0723 N.4         1 INH       0.2597
      7 C7        -21.7348   91.3059   81.9511 C.3         1 INH       0.0701
      8 C8        -22.4250   92.5019   81.2050 C.3         1 INH       0.0177
      9 C9        -21.5326   93.2066   80.1182 C.3         1 INH      -0.0119
     10 C10       -21.4778   94.6926   80.2350 C.ar        1 INH      -0.0427
     11 C11       -21.1508   95.2936   81.4762 C.ar        1 INH      -0.0603
     12 C12       -21.1199   96.6935   81.6149 C.ar        1 INH      -0.0686
     13 C13       -21.3812   97.5142   80.5101 C.ar        1 INH      -0.0687
     14 C14       -21.6618   96.9355   79.2546 C.ar        1 INH      -0.0686
     15 C15       -21.7100   95.5364   79.1216 C.ar        1 INH      -0.0603
     16 C16       -20.4581   91.7316   82.5292 C.2         1 INH       0.2270
     17 O17       -20.4771   92.4797   83.5024 O.2         1 INH      -0.3907
     18 N18       -19.3173   91.4765   81.8939 N.am        1 INH      -0.2605
     19 C19       -18.0595   92.1621   82.0665 C.3         1 INH       0.1369
     20 C20       -16.9238   91.1729   82.4762 C.3         1 INH      -0.0087
     21 C21       -15.4805   91.7615   82.5286 C.3         1 INH      -0.0156
     22 C22       -15.0754   92.4351   83.8633 C.3         1 INH       0.0627
     23 N23       -15.7887   93.6163   84.1017 N.pl3       1 INH      -0.2723
     24 C24       -16.2377   94.0626   85.2195 C.cat       1 INH       0.2882
     25 N25       -16.8846   95.1639   85.2008 N.pl3       1 INH      -0.2849
     26 N26       -16.0886   93.4873   86.3505 N.pl3       1 INH      -0.2849
     27 C27       -17.8091   92.8347   80.7934 C.2         1 INH       0.2292
     28 O28       -17.4707   92.1414   79.8459 O.2         1 INH      -0.3823
     29 N29       -17.9368   94.1585   80.6959 N.am        1 INH      -0.2320
     30 C30       -17.8186   94.9458   79.5817 C.ar        1 INH       0.0663
     31 C31       -18.1967   94.5268   78.2839 C.ar        1 INH      -0.0413
     32 C32       -18.0370   95.3773   77.1750 C.ar        1 INH      -0.0755
     33 C33       -17.5168   96.6692   77.3517 C.ar        1 INH      -0.0772
     34 C34       -17.1720   97.1156   78.6418 C.ar        1 INH      -0.0755
     35 C35       -17.3321   96.2622   79.7502 C.ar        1 INH      -0.0413
     36 H1        -25.0640   88.8265   81.5550 H           1 INH       0.0303
     37 H2        -23.3886   89.1009   80.9718 H           1 INH       0.0303
     38 H3        -24.5952   90.4056   80.8735 H           1 INH       0.0303
     39 H4        -23.6847   89.0869   83.4836 H           1 INH       0.1023
     40 H5        -21.9131   90.0752   83.5539 H           1 INH       0.2052
     41 H6        -22.7279   91.5040   83.7277 H           1 INH       0.2052
     42 H7        -21.5488   90.5064   81.2279 H           1 INH       0.1101
     43 H8        -22.7781   93.2079   81.9640 H           1 INH       0.0368
     44 H9        -23.3194   92.1405   80.6863 H           1 INH       0.0368
     45 H10       -21.9117   92.9096   79.1310 H           1 INH       0.0429
     46 H11       -20.4998   92.8515   80.1553 H           1 INH       0.0429
     47 H12       -20.9387   94.7201   82.2938 H           1 INH       0.0557
     48 H13       -20.9297   97.1085   82.5291 H           1 INH       0.0599
     49 H14       -21.3531   98.5298   80.6105 H           1 INH       0.0559
     50 H15       -21.8369   97.5344   78.4474 H           1 INH       0.0599
     51 H16       -21.9104   95.1330   78.2039 H           1 INH       0.0557
     52 H17       -19.3698   90.8598   81.1457 H           1 INH       0.1885
     53 H18       -18.1389   92.9077   82.8614 H           1 INH       0.0805
     54 H19       -16.9290   90.3424   81.7610 H           1 INH       0.0314
     55 H20       -17.1649   90.7518   83.4545 H           1 INH       0.0314
     56 H21       -15.3315   92.4705   81.7140 H           1 INH       0.0301
     57 H22       -14.7849   90.9363   82.3599 H           1 INH       0.0301
     58 H23       -14.0196   92.6980   83.8034 H           1 INH       0.0689
     59 H24       -15.1853   91.7026   84.6698 H           1 INH       0.0689
     60 H25       -15.9495   94.1561   83.3543 H           1 INH       0.2642
     61 H26       -17.2360   95.5196   85.9922 H           1 INH       0.2615
     62 H27       -17.0137   95.6186   84.3938 H           1 INH       0.2615
     63 H28       -15.6135   92.6873   86.4166 H           1 INH       0.2615
     64 H29       -16.4415   93.8748   87.1251 H           1 INH       0.2615
     65 H30       -18.1015   94.6282   81.5296 H           1 INH       0.2257
     66 H31       -18.6125   93.6094   78.1237 H           1 INH       0.0502
     67 H32       -18.3070   95.0553   76.2418 H           1 INH       0.0577
     68 H33       -17.3847   97.2818   76.5413 H           1 INH       0.0487
     69 H34       -16.8025   98.0593   78.7679 H           1 INH       0.0577
     70 H35       -17.0718   96.6039   80.6777 H           1 INH       0.0502
@<TRIPOS>BOND
     1     1     2   1
     2     2     6   1
     3     2     3   1
     4     3     5  ar
     5     3     4  ar
     6     6     7   1
     7     7    16   1
     8     7     8   1
     9     8     9   1
    10     9    10   1
    11    10    15  ar
    12    10    11  ar
    13    11    12  ar
    14    12    13  ar
    15    13    14  ar
    16    14    15  ar
    17    16    18  am
    18    16    17   2
    19    18    19   1
    20    19    27   1
    21    19    20   1
    22    20    21   1
    23    21    22   1
    24    22    23   1
    25    23    24  ar
    26    24    26  ar
    27    24    25  ar
    28    27    29  am
    29    27    28   2
    30    29    30   1
    31    30    35  ar
    32    30    31  ar
    33    31    32  ar
    34    32    33  ar
    35    33    34  ar
    36    34    35  ar
    37     1    36   1
    38     1    37   1
    39     1    38   1
    40     2    39   1
    41     6    40   1
    42     6    41   1
    43     7    42   1
    44     8    43   1
    45     8    44   1
    46     9    45   1
    47     9    46   1
    48    11    47   1
    49    12    48   1
    50    13    49   1
    51    14    50   1
    52    15    51   1
    53    18    52   1
    54    19    53   1
    55    20    54   1
    56    20    55   1
    57    21    56   1
    58    21    57   1
    59    22    58   1
    60    22    59   1
    61    23    60   1
    62    25    61   1
    63    25    62   1
    64    26    63   1
    65    26    64   1
    66    29    65   1
    67    31    66   1
    68    32    67   1
    69    33    68   1
    70    34    69   1
    71    35    70   1
@<TRIPOS>SUBSTRUCTURE
     1  INH      1

