@<TRIPOS>MOLECULE
1sln_ligand_021
    70    71
SMALL
GAST_HUCK
****
This file was generated by PARSER (from files_GN.cpp)

@<TRIPOS>ATOM
      1 C1        -20.1236   94.2649   82.2837 C.3         1 INH      -0.0094
      2 C2        -19.9087   92.7805   81.8906 C.3         1 INH       0.0293
      3 C3        -21.1451   92.0053   82.1283 C.2         1 INH       0.0842
      4 O4        -21.7359   91.3239   81.1202 O.co2       1 INH      -0.5643
      5 O5        -21.6801   91.9147   83.3683 O.co2       1 INH      -0.5643
      6 N6        -18.7894   92.1365   82.6356 N.4         1 INH       0.2597
      7 C7        -17.3775   92.5525   82.3670 C.3         1 INH       0.0701
      8 C8        -16.3844   91.4513   82.8615 C.3         1 INH       0.0177
      9 C9        -16.3070   91.2822   84.4048 C.3         1 INH      -0.0119
     10 C10       -15.8061   92.5002   85.1027 C.ar        1 INH      -0.0427
     11 C11       -16.6549   93.6050   85.3440 C.ar        1 INH      -0.0603
     12 C12       -16.1739   94.7534   86.0060 C.ar        1 INH      -0.0686
     13 C13       -14.8381   94.8101   86.4343 C.ar        1 INH      -0.0687
     14 C14       -13.9806   93.7206   86.2005 C.ar        1 INH      -0.0686
     15 C15       -14.4571   92.5786   85.5297 C.ar        1 INH      -0.0603
     16 C16       -17.1461   92.8824   80.9603 C.2         1 INH       0.2270
     17 O17       -17.1232   91.9830   80.1286 O.2         1 INH      -0.3907
     18 N18       -17.0576   94.1646   80.6210 N.am        1 INH      -0.2605
     19 C19       -16.9660   94.7287   79.3055 C.3         1 INH       0.1369
     20 C20       -18.2400   94.4567   78.4312 C.3         1 INH      -0.0087
     21 C21       -18.4124   95.3626   77.1598 C.3         1 INH      -0.0156
     22 C22       -19.6461   96.3186   77.1999 C.3         1 INH       0.0627
     23 N23       -20.7949   95.7539   76.6372 N.pl3       1 INH      -0.2723
     24 C24       -21.0113   95.5306   75.3881 C.cat       1 INH       0.2882
     25 N25       -22.1432   95.0277   75.0549 N.pl3       1 INH      -0.2849
     26 N26       -20.1809   95.7802   74.4430 N.pl3       1 INH      -0.2849
     27 C27       -16.7193   96.1519   79.4917 C.2         1 INH       0.2292
     28 O28       -17.6608   96.8830   79.7860 O.2         1 INH      -0.3823
     29 N29       -15.4912   96.6423   79.3758 N.am        1 INH      -0.2320
     30 C30       -15.1652   97.9569   79.4519 C.ar        1 INH       0.0663
     31 C31       -15.5400   98.8512   78.4191 C.ar        1 INH      -0.0413
     32 C32       -15.1996  100.2115   78.5036 C.ar        1 INH      -0.0755
     33 C33       -14.4887  100.6940   79.6179 C.ar        1 INH      -0.0772
     34 C34       -14.1101   99.8090   80.6477 C.ar        1 INH      -0.0755
     35 C35       -14.4382   98.4425   80.5562 C.ar        1 INH      -0.0413
     36 H1        -21.0164   94.6715   81.8045 H           1 INH       0.0303
     37 H2        -19.2745   94.8696   81.9652 H           1 INH       0.0303
     38 H3        -20.2301   94.3643   83.3667 H           1 INH       0.0303
     39 H4        -19.6957   92.7390   80.8192 H           1 INH       0.1023
     40 H5        -18.8682   91.1236   82.5111 H           1 INH       0.2052
     41 H6        -18.9654   92.3123   83.6315 H           1 INH       0.2052
     42 H7        -17.1948   93.4449   82.9822 H           1 INH       0.1101
     43 H8        -15.3782   91.6757   82.4898 H           1 INH       0.0368
     44 H9        -16.6793   90.4883   82.4246 H           1 INH       0.0368
     45 H10       -15.6405   90.4419   84.6263 H           1 INH       0.0429
     46 H11       -17.2873   90.9968   84.7920 H           1 INH       0.0429
     47 H12       -17.6285   93.5882   85.0357 H           1 INH       0.0557
     48 H13       -16.7997   95.5443   86.1748 H           1 INH       0.0599
     49 H14       -14.4875   95.6447   86.9088 H           1 INH       0.0559
     50 H15       -13.0121   93.7563   86.5268 H           1 INH       0.0599
     51 H16       -13.8106   91.8071   85.3439 H           1 INH       0.0557
     52 H17       -17.0880   94.8049   81.3559 H           1 INH       0.1885
     53 H18       -16.1073   94.2687   78.8036 H           1 INH       0.0805
     54 H19       -19.1205   94.5504   79.0755 H           1 INH       0.0314
     55 H20       -18.2170   93.4132   78.1058 H           1 INH       0.0314
     56 H21       -18.4821   94.7341   76.2679 H           1 INH       0.0301
     57 H22       -17.5167   95.9731   77.0138 H           1 INH       0.0301
     58 H23       -19.4003   97.2607   76.7001 H           1 INH       0.0689
     59 H24       -19.8764   96.5787   78.2371 H           1 INH       0.0689
     60 H25       -21.4898   95.5403   77.2239 H           1 INH       0.2642
     61 H26       -22.3357   94.8591   74.1593 H           1 INH       0.2615
     62 H27       -22.7735   94.8316   75.7137 H           1 INH       0.2615
     63 H28       -19.3481   96.1453   74.6320 H           1 INH       0.2615
     64 H29       -20.4197   95.5972   73.5614 H           1 INH       0.2615
     65 H30       -14.7607   96.0151   79.2823 H           1 INH       0.2257
     66 H31       -16.0510   98.5131   77.5999 H           1 INH       0.0502
     67 H32       -15.4681  100.8569   77.7558 H           1 INH       0.0577
     68 H33       -14.2498  101.6862   79.6882 H           1 INH       0.0487
     69 H34       -13.6040  100.1577   81.4654 H           1 INH       0.0577
     70 H35       -14.1629   97.8051   81.3086 H           1 INH       0.0502
@<TRIPOS>BOND
     1     1     2   1
     2     2     6   1
     3     2     3   1
     4     3     5  ar
     5     3     4  ar
     6     6     7   1
     7     7    16   1
     8     7     8   1
     9     8     9   1
    10     9    10   1
    11    10    15  ar
    12    10    11  ar
    13    11    12  ar
    14    12    13  ar
    15    13    14  ar
    16    14    15  ar
    17    16    18  am
    18    16    17   2
    19    18    19   1
    20    19    27   1
    21    19    20   1
    22    20    21   1
    23    21    22   1
    24    22    23   1
    25    23    24  ar
    26    24    26  ar
    27    24    25  ar
    28    27    29  am
    29    27    28   2
    30    29    30   1
    31    30    35  ar
    32    30    31  ar
    33    31    32  ar
    34    32    33  ar
    35    33    34  ar
    36    34    35  ar
    37     1    36   1
    38     1    37   1
    39     1    38   1
    40     2    39   1
    41     6    40   1
    42     6    41   1
    43     7    42   1
    44     8    43   1
    45     8    44   1
    46     9    45   1
    47     9    46   1
    48    11    47   1
    49    12    48   1
    50    13    49   1
    51    14    50   1
    52    15    51   1
    53    18    52   1
    54    19    53   1
    55    20    54   1
    56    20    55   1
    57    21    56   1
    58    21    57   1
    59    22    58   1
    60    22    59   1
    61    23    60   1
    62    25    61   1
    63    25    62   1
    64    26    63   1
    65    26    64   1
    66    29    65   1
    67    31    66   1
    68    32    67   1
    69    33    68   1
    70    34    69   1
    71    35    70   1
@<TRIPOS>SUBSTRUCTURE
     1  INH      1

