@<TRIPOS>MOLECULE
1sln_ligand_017
    70    71
SMALL
GAST_HUCK
****
This file was generated by PARSER (from files_GN.cpp)

@<TRIPOS>ATOM
      1 C1        -21.7804   91.9856   80.3519 C.3         1 INH      -0.0094
      2 C2        -20.9030   91.4590   81.5181 C.3         1 INH       0.0293
      3 C3        -21.1599   92.1418   82.8072 C.2         1 INH       0.0842
      4 O4        -22.4051   92.1331   83.3307 O.co2       1 INH      -0.5643
      5 O5        -20.1454   92.2980   83.6834 O.co2       1 INH      -0.5643
      6 N6        -19.4513   91.4172   81.1932 N.4         1 INH       0.2597
      7 C7        -18.5839   92.6336   81.2059 C.3         1 INH       0.0701
      8 C8        -17.1050   92.2016   81.5313 C.3         1 INH       0.0177
      9 C9        -16.1739   93.3151   82.1158 C.3         1 INH      -0.0119
     10 C10       -15.9810   93.2675   83.5994 C.ar        1 INH      -0.0427
     11 C11       -15.4306   92.1141   84.2134 C.ar        1 INH      -0.0603
     12 C12       -15.2225   92.0620   85.6043 C.ar        1 INH      -0.0686
     13 C13       -15.5594   93.1662   86.4066 C.ar        1 INH      -0.0687
     14 C14       -16.0772   94.3294   85.8112 C.ar        1 INH      -0.0686
     15 C15       -16.2857   94.3801   84.4192 C.ar        1 INH      -0.0603
     16 C16       -18.7105   93.3378   79.9283 C.2         1 INH       0.2270
     17 O17       -18.1073   92.8893   78.9481 O.2         1 INH      -0.3907
     18 N18       -19.4943   94.4104   79.8268 N.am        1 INH      -0.2605
     19 C19       -19.8182   95.2247   78.6714 C.3         1 INH       0.1369
     20 C20       -18.7114   95.3527   77.5738 C.3         1 INH      -0.0087
     21 C21       -17.3711   95.9764   78.0767 C.3         1 INH      -0.0156
     22 C22       -17.3695   97.5371   78.1264 C.3         1 INH       0.0627
     23 N23       -16.3797   98.1431   77.3412 N.pl3       1 INH      -0.2723
     24 C24       -16.2406   98.0749   76.0675 C.cat       1 INH       0.2882
     25 N25       -17.0139   97.4141   75.2909 N.pl3       1 INH      -0.2849
     26 N26       -15.2715   98.6964   75.5181 N.pl3       1 INH      -0.2849
     27 C27       -21.1217   94.8487   78.1119 C.2         1 INH       0.2292
     28 O28       -21.9052   95.7555   77.8337 O.2         1 INH      -0.3823
     29 N29       -21.4133   93.5805   77.8607 N.am        1 INH      -0.2320
     30 C30       -22.5770   92.9918   77.4094 C.ar        1 INH       0.0663
     31 C31       -23.8659   93.5799   77.4960 C.ar        1 INH      -0.0413
     32 C32       -25.0267   92.8625   77.1416 C.ar        1 INH      -0.0755
     33 C33       -24.9235   91.5373   76.6812 C.ar        1 INH      -0.0772
     34 C34       -23.6568   90.9379   76.5667 C.ar        1 INH      -0.0755
     35 C35       -22.4998   91.6639   76.9202 C.ar        1 INH      -0.0413
     36 H1        -22.8327   91.7441   80.5426 H           1 INH       0.0303
     37 H2        -21.4815   91.4977   79.4181 H           1 INH       0.0303
     38 H3        -21.6697   93.0709   80.2435 H           1 INH       0.0303
     39 H4        -21.1763   90.4050   81.6590 H           1 INH       0.1023
     40 H5        -19.3706   90.9546   80.2820 H           1 INH       0.2052
     41 H6        -19.0501   90.7785   81.8831 H           1 INH       0.2052
     42 H7        -18.9186   93.2928   82.0213 H           1 INH       0.1101
     43 H8        -16.6372   91.7821   80.6292 H           1 INH       0.0368
     44 H9        -17.1310   91.3688   82.2403 H           1 INH       0.0368
     45 H10       -16.5536   94.2890   81.7964 H           1 INH       0.0429
     46 H11       -15.1839   93.2099   81.6659 H           1 INH       0.0429
     47 H12       -15.1644   91.3025   83.6490 H           1 INH       0.0557
     48 H13       -14.8298   91.2209   86.0318 H           1 INH       0.0599
     49 H14       -15.4090   93.1299   87.4158 H           1 INH       0.0559
     50 H15       -16.3034   95.1395   86.3903 H           1 INH       0.0599
     51 H16       -16.6459   95.2429   84.0062 H           1 INH       0.0557
     52 H17       -19.9701   94.6702   80.6440 H           1 INH       0.1885
     53 H18       -19.9263   96.2356   79.0894 H           1 INH       0.0805
     54 H19       -19.0909   95.9664   76.7475 H           1 INH       0.0314
     55 H20       -18.4930   94.3726   77.1449 H           1 INH       0.0314
     56 H21       -16.5747   95.6278   77.4083 H           1 INH       0.0301
     57 H22       -17.1264   95.5729   79.0657 H           1 INH       0.0301
     58 H23       -17.2010   97.8481   79.1596 H           1 INH       0.0689
     59 H24       -18.3406   97.9480   77.8340 H           1 INH       0.0689
     60 H25       -15.7530   98.6696   77.7973 H           1 INH       0.2642
     61 H26       -16.8339   97.3969   74.3733 H           1 INH       0.2615
     62 H27       -17.7404   96.9431   75.6274 H           1 INH       0.2615
     63 H28       -14.6748   99.2012   76.0372 H           1 INH       0.2615
     64 H29       -15.1548   98.6354   74.5925 H           1 INH       0.2615
     65 H30       -20.6825   92.9577   78.0065 H           1 INH       0.2257
     66 H31       -23.9956   94.5166   77.8727 H           1 INH       0.0502
     67 H32       -25.9462   93.3016   77.2457 H           1 INH       0.0577
     68 H33       -25.7722   91.0063   76.4692 H           1 INH       0.0487
     69 H34       -23.5903   89.9670   76.2479 H           1 INH       0.0577
     70 H35       -21.5977   91.1847   76.8429 H           1 INH       0.0502
@<TRIPOS>BOND
     1     1     2   1
     2     2     6   1
     3     2     3   1
     4     3     5  ar
     5     3     4  ar
     6     6     7   1
     7     7    16   1
     8     7     8   1
     9     8     9   1
    10     9    10   1
    11    10    15  ar
    12    10    11  ar
    13    11    12  ar
    14    12    13  ar
    15    13    14  ar
    16    14    15  ar
    17    16    18  am
    18    16    17   2
    19    18    19   1
    20    19    27   1
    21    19    20   1
    22    20    21   1
    23    21    22   1
    24    22    23   1
    25    23    24  ar
    26    24    26  ar
    27    24    25  ar
    28    27    29  am
    29    27    28   2
    30    29    30   1
    31    30    35  ar
    32    30    31  ar
    33    31    32  ar
    34    32    33  ar
    35    33    34  ar
    36    34    35  ar
    37     1    36   1
    38     1    37   1
    39     1    38   1
    40     2    39   1
    41     6    40   1
    42     6    41   1
    43     7    42   1
    44     8    43   1
    45     8    44   1
    46     9    45   1
    47     9    46   1
    48    11    47   1
    49    12    48   1
    50    13    49   1
    51    14    50   1
    52    15    51   1
    53    18    52   1
    54    19    53   1
    55    20    54   1
    56    20    55   1
    57    21    56   1
    58    21    57   1
    59    22    58   1
    60    22    59   1
    61    23    60   1
    62    25    61   1
    63    25    62   1
    64    26    63   1
    65    26    64   1
    66    29    65   1
    67    31    66   1
    68    32    67   1
    69    33    68   1
    70    34    69   1
    71    35    70   1
@<TRIPOS>SUBSTRUCTURE
     1  INH      1

