@<TRIPOS>MOLECULE
1sln_ligand_007
    70    71
SMALL
GAST_HUCK
****
This file was generated by PARSER (from files_GN.cpp)

@<TRIPOS>ATOM
      1 C1        -20.9060   92.5021   79.4826 C.3         1 INH      -0.0094
      2 C2        -20.8976   91.9972   80.9484 C.3         1 INH       0.0293
      3 C3        -21.6672   92.8566   81.8772 C.2         1 INH       0.0842
      4 O4        -22.3804   93.9284   81.4590 O.co2       1 INH      -0.5643
      5 O5        -21.6650   92.5862   83.1991 O.co2       1 INH      -0.5643
      6 N6        -19.5187   91.6944   81.4300 N.4         1 INH       0.2597
      7 C7        -18.5390   92.7848   81.7325 C.3         1 INH       0.0701
      8 C8        -17.3993   92.2143   82.6346 C.3         1 INH       0.0177
      9 C9        -16.3190   93.2716   83.0209 C.3         1 INH      -0.0119
     10 C10       -15.6680   92.9916   84.3252 C.ar        1 INH      -0.0427
     11 C11       -16.2494   93.4579   85.5285 C.ar        1 INH      -0.0603
     12 C12       -15.6345   93.2026   86.7667 C.ar        1 INH      -0.0686
     13 C13       -14.4312   92.4773   86.8176 C.ar        1 INH      -0.0687
     14 C14       -13.8451   92.0051   85.6292 C.ar        1 INH      -0.0686
     15 C15       -14.4631   92.2534   84.3892 C.ar        1 INH      -0.0603
     16 C16       -17.9724   93.3988   80.5351 C.2         1 INH       0.2270
     17 O17       -17.6202   92.6660   79.6190 O.2         1 INH      -0.3907
     18 N18       -17.7281   94.7077   80.5111 N.am        1 INH      -0.2605
     19 C19       -17.0520   95.4587   79.4781 C.3         1 INH       0.1369
     20 C20       -18.1418   96.0093   78.4898 C.3         1 INH      -0.0087
     21 C21       -17.7792   95.8396   76.9820 C.3         1 INH      -0.0156
     22 C22       -18.2986   96.9959   76.0895 C.3         1 INH       0.0627
     23 N23       -18.2981   96.6328   74.7366 N.pl3       1 INH      -0.2723
     24 C24       -18.3692   97.4123   73.7233 C.cat       1 INH       0.2882
     25 N25       -18.4053   96.8818   72.5626 N.pl3       1 INH      -0.2849
     26 N26       -18.4055   98.6894   73.7792 N.pl3       1 INH      -0.2849
     27 C27       -16.1928   96.5146   80.0489 C.2         1 INH       0.2292
     28 O28       -15.8994   96.4847   81.2379 O.2         1 INH      -0.3823
     29 N29       -15.7990   97.5295   79.2822 N.am        1 INH      -0.2320
     30 C30       -15.1267   98.6837   79.5955 C.ar        1 INH       0.0663
     31 C31       -14.2632   98.8479   80.7053 C.ar        1 INH      -0.0413
     32 C32       -13.5950  100.0690   80.9251 C.ar        1 INH      -0.0755
     33 C33       -13.7939  101.1508   80.0486 C.ar        1 INH      -0.0772
     34 C34       -14.6522  101.0053   78.9449 C.ar        1 INH      -0.0755
     35 C35       -15.2975   99.7760   78.7138 C.ar        1 INH      -0.0413
     36 H1        -21.9278   92.5196   79.0960 H           1 INH       0.0303
     37 H2        -20.3120   91.8395   78.8498 H           1 INH       0.0303
     38 H3        -20.4954   93.5102   79.4199 H           1 INH       0.0303
     39 H4        -21.4154   91.0332   80.9382 H           1 INH       0.1023
     40 H5        -19.1117   91.0703   80.7355 H           1 INH       0.2052
     41 H6        -19.6122   91.1253   82.2754 H           1 INH       0.2052
     42 H7        -19.0515   93.5437   82.3323 H           1 INH       0.1101
     43 H8        -16.9145   91.3719   82.1296 H           1 INH       0.0368
     44 H9        -17.8599   91.8209   83.5468 H           1 INH       0.0368
     45 H10       -16.7803   94.2630   83.0535 H           1 INH       0.0429
     46 H11       -15.5547   93.3152   82.2387 H           1 INH       0.0429
     47 H12       -17.1287   93.9815   85.5121 H           1 INH       0.0557
     48 H13       -16.0645   93.5447   87.6288 H           1 INH       0.0599
     49 H14       -13.9836   92.2929   87.7182 H           1 INH       0.0559
     50 H15       -12.9672   91.4836   85.6674 H           1 INH       0.0599
     51 H16       -14.0251   91.9005   83.5340 H           1 INH       0.0557
     52 H17       -18.0385   95.2251   81.2747 H           1 INH       0.1885
     53 H18       -16.3822   94.7932   78.9245 H           1 INH       0.0805
     54 H19       -18.3340   97.0624   78.7152 H           1 INH       0.0314
     55 H20       -19.0925   95.4895   78.6390 H           1 INH       0.0314
     56 H21       -18.2000   94.8918   76.6307 H           1 INH       0.0301
     57 H22       -16.6946   95.7790   76.8552 H           1 INH       0.0301
     58 H23       -17.6516   97.8641   76.2472 H           1 INH       0.0689
     59 H24       -19.3183   97.2580   76.3840 H           1 INH       0.0689
     60 H25       -18.2559   95.7158   74.5529 H           1 INH       0.2642
     61 H26       -18.4558   97.4220   71.8004 H           1 INH       0.2615
     62 H27       -18.3946   95.9518   72.4697 H           1 INH       0.2615
     63 H28       -18.3758   99.1312   74.6021 H           1 INH       0.2615
     64 H29       -18.4520   99.1890   72.9892 H           1 INH       0.2615
     65 H30       -16.1285   97.4984   78.3729 H           1 INH       0.2257
     66 H31       -14.0927   98.0735   81.3449 H           1 INH       0.0502
     67 H32       -12.9572  100.1734   81.7164 H           1 INH       0.0577
     68 H33       -13.3095  102.0385   80.2077 H           1 INH       0.0487
     69 H34       -14.8026  101.7931   78.3086 H           1 INH       0.0577
     70 H35       -15.9126   99.6906   77.9000 H           1 INH       0.0502
@<TRIPOS>BOND
     1     1     2   1
     2     2     6   1
     3     2     3   1
     4     3     5  ar
     5     3     4  ar
     6     6     7   1
     7     7    16   1
     8     7     8   1
     9     8     9   1
    10     9    10   1
    11    10    15  ar
    12    10    11  ar
    13    11    12  ar
    14    12    13  ar
    15    13    14  ar
    16    14    15  ar
    17    16    18  am
    18    16    17   2
    19    18    19   1
    20    19    27   1
    21    19    20   1
    22    20    21   1
    23    21    22   1
    24    22    23   1
    25    23    24  ar
    26    24    26  ar
    27    24    25  ar
    28    27    29  am
    29    27    28   2
    30    29    30   1
    31    30    35  ar
    32    30    31  ar
    33    31    32  ar
    34    32    33  ar
    35    33    34  ar
    36    34    35  ar
    37     1    36   1
    38     1    37   1
    39     1    38   1
    40     2    39   1
    41     6    40   1
    42     6    41   1
    43     7    42   1
    44     8    43   1
    45     8    44   1
    46     9    45   1
    47     9    46   1
    48    11    47   1
    49    12    48   1
    50    13    49   1
    51    14    50   1
    52    15    51   1
    53    18    52   1
    54    19    53   1
    55    20    54   1
    56    20    55   1
    57    21    56   1
    58    21    57   1
    59    22    58   1
    60    22    59   1
    61    23    60   1
    62    25    61   1
    63    25    62   1
    64    26    63   1
    65    26    64   1
    66    29    65   1
    67    31    66   1
    68    32    67   1
    69    33    68   1
    70    34    69   1
    71    35    70   1
@<TRIPOS>SUBSTRUCTURE
     1  INH      1

