@<TRIPOS>MOLECULE
1sln_ligand_045
    70    71
SMALL
GAST_HUCK
****
This file was generated by PARSER (from files_GN.cpp)

@<TRIPOS>ATOM
      1 C1        -21.0343   91.4537   83.1497 C.3         1 INH      -0.0094
      2 C2        -22.5327   91.6080   82.7758 C.3         1 INH       0.0293
      3 C3        -23.2385   90.3180   82.9196 C.2         1 INH       0.0842
      4 O4        -24.2091   90.1728   83.8502 O.co2       1 INH      -0.5643
      5 O5        -22.9418   89.2650   82.1256 O.co2       1 INH      -0.5643
      6 N6        -22.8207   92.2159   81.4449 N.4         1 INH       0.2597
      7 C7        -21.9514   91.9120   80.2718 C.3         1 INH       0.0701
      8 C8        -22.7936   92.0394   78.9693 C.3         1 INH       0.0177
      9 C9        -21.9907   91.8239   77.6504 C.3         1 INH      -0.0119
     10 C10       -22.7427   91.0921   76.5854 C.ar        1 INH      -0.0427
     11 C11       -22.2996   89.8313   76.1157 C.ar        1 INH      -0.0603
     12 C12       -23.0062   89.1453   75.1098 C.ar        1 INH      -0.0686
     13 C13       -24.1577   89.7206   74.5423 C.ar        1 INH      -0.0687
     14 C14       -24.6124   90.9707   74.9992 C.ar        1 INH      -0.0686
     15 C15       -23.9023   91.6566   76.0042 C.ar        1 INH      -0.0603
     16 C16       -20.7814   92.7836   80.2923 C.2         1 INH       0.2270
     17 O17       -20.9566   93.9917   80.1710 O.2         1 INH      -0.3907
     18 N18       -19.5621   92.2853   80.4915 N.am        1 INH      -0.2605
     19 C19       -18.3514   93.0411   80.6850 C.3         1 INH       0.1369
     20 C20       -17.1580   92.1123   81.1071 C.3         1 INH      -0.0087
     21 C21       -17.0305   91.8946   82.6420 C.3         1 INH      -0.0156
     22 C22       -15.9829   90.8094   83.0218 C.3         1 INH       0.0627
     23 N23       -15.6963   90.7504   84.3932 N.pl3       1 INH      -0.2723
     24 C24       -14.9925   91.5781   85.0813 C.cat       1 INH       0.2882
     25 N25       -14.8212   91.3284   86.3185 N.pl3       1 INH      -0.2849
     26 N26       -14.4335   92.6244   84.6055 N.pl3       1 INH      -0.2849
     27 C27       -18.0270   93.8057   79.4797 C.2         1 INH       0.2292
     28 O28       -17.5801   93.2028   78.5125 O.2         1 INH      -0.3823
     29 N29       -18.3483   95.0920   79.4172 N.am        1 INH      -0.2320
     30 C30       -18.1777   95.9546   78.3758 C.ar        1 INH       0.0663
     31 C31       -16.9662   96.0617   77.6557 C.ar        1 INH      -0.0413
     32 C32       -16.8384   97.0011   76.6160 C.ar        1 INH      -0.0755
     33 C33       -17.9228   97.8358   76.2875 C.ar        1 INH      -0.0772
     34 C34       -19.1248   97.7470   77.0117 C.ar        1 INH      -0.0755
     35 C35       -19.2465   96.8180   78.0601 C.ar        1 INH      -0.0413
     36 H1        -20.9212   91.0876   84.1745 H           1 INH       0.0303
     37 H2        -20.5357   92.4237   83.0722 H           1 INH       0.0303
     38 H3        -20.5337   90.7440   82.4860 H           1 INH       0.0303
     39 H4        -22.9631   92.2983   83.5063 H           1 INH       0.1023
     40 H5        -22.8343   93.2277   81.5696 H           1 INH       0.2052
     41 H6        -23.7711   91.9361   81.2016 H           1 INH       0.2052
     42 H7        -21.6380   90.8642   80.3165 H           1 INH       0.1101
     43 H8        -23.2818   93.0231   78.9367 H           1 INH       0.0368
     44 H9        -23.5970   91.2926   79.0297 H           1 INH       0.0368
     45 H10       -21.0691   91.2801   77.8805 H           1 INH       0.0429
     46 H11       -21.6845   92.7997   77.2583 H           1 INH       0.0429
     47 H12       -21.4649   89.3926   76.5146 H           1 INH       0.0557
     48 H13       -22.6790   88.2354   74.7791 H           1 INH       0.0599
     49 H14       -24.6687   89.2275   73.8103 H           1 INH       0.0559
     50 H15       -25.4505   91.3883   74.5910 H           1 INH       0.0599
     51 H16       -24.2460   92.5683   76.3217 H           1 INH       0.0557
     52 H17       -19.4929   91.3136   80.5550 H           1 INH       0.1885
     53 H18       -18.5422   93.7347   81.5166 H           1 INH       0.0805
     54 H19       -16.2035   92.5315   80.7658 H           1 INH       0.0314
     55 H20       -17.2676   91.1389   80.6166 H           1 INH       0.0314
     56 H21       -18.0004   91.6018   83.0510 H           1 INH       0.0301
     57 H22       -16.7454   92.8483   83.0983 H           1 INH       0.0301
     58 H23       -15.0550   90.9491   82.4552 H           1 INH       0.0689
     59 H24       -16.3944   89.8378   82.7277 H           1 INH       0.0689
     60 H25       -16.0260   90.0055   84.8575 H           1 INH       0.2642
     61 H26       -14.3065   91.9015   86.8550 H           1 INH       0.2615
     62 H27       -15.2044   90.5615   86.6969 H           1 INH       0.2615
     63 H28       -14.5285   92.8390   83.6977 H           1 INH       0.2615
     64 H29       -13.9247   93.1793   85.1670 H           1 INH       0.2615
     65 H30       -18.8525   95.4354   80.1712 H           1 INH       0.2257
     66 H31       -16.1627   95.4776   77.9151 H           1 INH       0.0502
     67 H32       -15.9605   97.0645   76.0958 H           1 INH       0.0577
     68 H33       -17.8295   98.5038   75.5216 H           1 INH       0.0487
     69 H34       -19.9100   98.3444   76.7613 H           1 INH       0.0577
     70 H35       -20.1251   96.7686   78.5783 H           1 INH       0.0502
@<TRIPOS>BOND
     1     1     2   1
     2     2     6   1
     3     2     3   1
     4     3     5  ar
     5     3     4  ar
     6     6     7   1
     7     7    16   1
     8     7     8   1
     9     8     9   1
    10     9    10   1
    11    10    15  ar
    12    10    11  ar
    13    11    12  ar
    14    12    13  ar
    15    13    14  ar
    16    14    15  ar
    17    16    18  am
    18    16    17   2
    19    18    19   1
    20    19    27   1
    21    19    20   1
    22    20    21   1
    23    21    22   1
    24    22    23   1
    25    23    24  ar
    26    24    26  ar
    27    24    25  ar
    28    27    29  am
    29    27    28   2
    30    29    30   1
    31    30    35  ar
    32    30    31  ar
    33    31    32  ar
    34    32    33  ar
    35    33    34  ar
    36    34    35  ar
    37     1    36   1
    38     1    37   1
    39     1    38   1
    40     2    39   1
    41     6    40   1
    42     6    41   1
    43     7    42   1
    44     8    43   1
    45     8    44   1
    46     9    45   1
    47     9    46   1
    48    11    47   1
    49    12    48   1
    50    13    49   1
    51    14    50   1
    52    15    51   1
    53    18    52   1
    54    19    53   1
    55    20    54   1
    56    20    55   1
    57    21    56   1
    58    21    57   1
    59    22    58   1
    60    22    59   1
    61    23    60   1
    62    25    61   1
    63    25    62   1
    64    26    63   1
    65    26    64   1
    66    29    65   1
    67    31    66   1
    68    32    67   1
    69    33    68   1
    70    34    69   1
    71    35    70   1
@<TRIPOS>SUBSTRUCTURE
     1  INH      1

