@<TRIPOS>MOLECULE
1sln_ligand_015
    70    71
SMALL
GAST_HUCK
****
This file was generated by PARSER (from files_GN.cpp)

@<TRIPOS>ATOM
      1 C1        -24.1457   89.6209   81.9755 C.3         1 INH      -0.0094
      2 C2        -22.7716   90.3390   81.9413 C.3         1 INH       0.0293
      3 C3        -22.6652   91.3812   82.9945 C.2         1 INH       0.0842
      4 O4        -23.7503   91.9065   83.6138 O.co2       1 INH      -0.5643
      5 O5        -21.4474   91.8375   83.3660 O.co2       1 INH      -0.5643
      6 N6        -22.3369   90.7051   80.5487 N.4         1 INH       0.2597
      7 C7        -22.4529   92.0734   79.9454 C.3         1 INH       0.0701
      8 C8        -23.9194   92.5442   79.6253 C.3         1 INH       0.0177
      9 C9        -24.5074   92.1366   78.2429 C.3         1 INH      -0.0119
     10 C10       -24.6224   90.6791   77.9690 C.ar        1 INH      -0.0427
     11 C11       -25.3604   89.8398   78.8350 C.ar        1 INH      -0.0603
     12 C12       -25.4908   88.4631   78.5672 C.ar        1 INH      -0.0686
     13 C13       -24.8921   87.9116   77.4248 C.ar        1 INH      -0.0687
     14 C14       -24.2017   88.7421   76.5254 C.ar        1 INH      -0.0686
     15 C15       -24.0566   90.1133   76.7999 C.ar        1 INH      -0.0603
     16 C16       -21.6617   93.0410   80.7067 C.2         1 INH       0.2270
     17 O17       -22.2325   93.8476   81.4349 O.2         1 INH      -0.3907
     18 N18       -20.3322   92.9574   80.7050 N.am        1 INH      -0.2605
     19 C19       -19.4188   93.7242   81.5189 C.3         1 INH       0.1369
     20 C20       -17.9445   93.2352   81.3289 C.3         1 INH      -0.0087
     21 C21       -17.6702   91.8103   81.8894 C.3         1 INH      -0.0156
     22 C22       -16.1737   91.3812   81.8323 C.3         1 INH       0.0627
     23 N23       -15.4450   91.6909   82.9864 N.pl3       1 INH      -0.2723
     24 C24       -15.5040   91.1160   84.1338 C.cat       1 INH       0.2882
     25 N25       -14.7145   91.5212   85.0433 N.pl3       1 INH      -0.2849
     26 N26       -16.2951   90.1531   84.4227 N.pl3       1 INH      -0.2849
     27 C27       -19.5756   95.1597   81.2591 C.2         1 INH       0.2292
     28 O28       -18.9912   95.6611   80.3072 O.2         1 INH      -0.3823
     29 N29       -20.5471   95.8125   81.8959 N.am        1 INH      -0.2320
     30 C30       -21.0223   97.0760   81.6928 C.ar        1 INH       0.0663
     31 C31       -22.4050   97.2985   81.8958 C.ar        1 INH      -0.0413
     32 C32       -22.9565   98.5811   81.7428 C.ar        1 INH      -0.0755
     33 C33       -22.1286   99.6662   81.4077 C.ar        1 INH      -0.0772
     34 C34       -20.7506   99.4648   81.2203 C.ar        1 INH      -0.0755
     35 C35       -20.1989   98.1756   81.3596 C.ar        1 INH      -0.0413
     36 H1        -24.3092   89.1738   82.9606 H           1 INH       0.0303
     37 H2        -24.1648   88.8216   81.2320 H           1 INH       0.0303
     38 H3        -24.9627   90.3130   81.7802 H           1 INH       0.0303
     39 H4        -22.0581   89.5691   82.2485 H           1 INH       0.1023
     40 H5        -22.8240   90.0709   79.9107 H           1 INH       0.2052
     41 H6        -21.3420   90.4528   80.4880 H           1 INH       0.2052
     42 H7        -21.9538   92.0057   78.9733 H           1 INH       0.1101
     43 H8        -23.9486   93.6388   79.6232 H           1 INH       0.0368
     44 H9        -24.5929   92.2312   80.4201 H           1 INH       0.0368
     45 H10       -23.9069   92.6297   77.4718 H           1 INH       0.0429
     46 H11       -25.5095   92.5647   78.1675 H           1 INH       0.0429
     47 H12       -25.8116   90.2251   79.6655 H           1 INH       0.0557
     48 H13       -26.0113   87.8654   79.2120 H           1 INH       0.0599
     49 H14       -24.9670   86.9070   77.2377 H           1 INH       0.0559
     50 H15       -23.7923   88.3518   75.6747 H           1 INH       0.0599
     51 H16       -23.5479   90.6992   76.1350 H           1 INH       0.0557
     52 H17       -19.9453   92.2755   80.1305 H           1 INH       0.1885
     53 H18       -19.6651   93.5274   82.5680 H           1 INH       0.0805
     54 H19       -17.2796   93.9424   81.8336 H           1 INH       0.0314
     55 H20       -17.7015   93.2469   80.2626 H           1 INH       0.0314
     56 H21       -18.2483   91.0930   81.2989 H           1 INH       0.0301
     57 H22       -18.0311   91.7512   82.9187 H           1 INH       0.0301
     58 H23       -15.6960   91.8797   80.9871 H           1 INH       0.0689
     59 H24       -16.1097   90.3078   81.6301 H           1 INH       0.0689
     60 H25       -14.8051   92.3683   82.8985 H           1 INH       0.2642
     61 H26       -14.7273   91.1245   85.8920 H           1 INH       0.2615
     62 H27       -14.1136   92.2197   84.8739 H           1 INH       0.2615
     63 H28       -16.8935   89.8240   83.7859 H           1 INH       0.2615
     64 H29       -16.2665   89.7583   85.2707 H           1 INH       0.2615
     65 H30       -21.0691   95.2782   82.5132 H           1 INH       0.2257
     66 H31       -23.0201   96.5166   82.1363 H           1 INH       0.0502
     67 H32       -23.9614   98.7228   81.8770 H           1 INH       0.0577
     68 H33       -22.5313  100.5995   81.3017 H           1 INH       0.0487
     69 H34       -20.1450  100.2570   80.9954 H           1 INH       0.0577
     70 H35       -19.1927   98.0476   81.2509 H           1 INH       0.0502
@<TRIPOS>BOND
     1     1     2   1
     2     2     6   1
     3     2     3   1
     4     3     5  ar
     5     3     4  ar
     6     6     7   1
     7     7    16   1
     8     7     8   1
     9     8     9   1
    10     9    10   1
    11    10    15  ar
    12    10    11  ar
    13    11    12  ar
    14    12    13  ar
    15    13    14  ar
    16    14    15  ar
    17    16    18  am
    18    16    17   2
    19    18    19   1
    20    19    27   1
    21    19    20   1
    22    20    21   1
    23    21    22   1
    24    22    23   1
    25    23    24  ar
    26    24    26  ar
    27    24    25  ar
    28    27    29  am
    29    27    28   2
    30    29    30   1
    31    30    35  ar
    32    30    31  ar
    33    31    32  ar
    34    32    33  ar
    35    33    34  ar
    36    34    35  ar
    37     1    36   1
    38     1    37   1
    39     1    38   1
    40     2    39   1
    41     6    40   1
    42     6    41   1
    43     7    42   1
    44     8    43   1
    45     8    44   1
    46     9    45   1
    47     9    46   1
    48    11    47   1
    49    12    48   1
    50    13    49   1
    51    14    50   1
    52    15    51   1
    53    18    52   1
    54    19    53   1
    55    20    54   1
    56    20    55   1
    57    21    56   1
    58    21    57   1
    59    22    58   1
    60    22    59   1
    61    23    60   1
    62    25    61   1
    63    25    62   1
    64    26    63   1
    65    26    64   1
    66    29    65   1
    67    31    66   1
    68    32    67   1
    69    33    68   1
    70    34    69   1
    71    35    70   1
@<TRIPOS>SUBSTRUCTURE
     1  INH      1

