@<TRIPOS>MOLECULE
1sln_ligand_049
    70    71
SMALL
GAST_HUCK
****
This file was generated by PARSER (from files_GN.cpp)

@<TRIPOS>ATOM
      1 C1        -22.0522   90.1147   81.7537 C.3         1 INH      -0.0094
      2 C2        -22.9925   91.0010   82.6082 C.3         1 INH       0.0293
      3 C3        -24.2805   90.3044   82.8100 C.2         1 INH       0.0842
      4 O4        -24.6616   89.8606   84.0335 O.co2       1 INH      -0.5643
      5 O5        -25.1153   90.0732   81.7744 O.co2       1 INH      -0.5643
      6 N6        -23.3034   92.3596   82.0706 N.4         1 INH       0.2597
      7 C7        -22.2942   93.1130   81.2709 C.3         1 INH       0.0701
      8 C8        -22.8570   94.5387   80.9313 C.3         1 INH       0.0177
      9 C9        -22.5032   95.0847   79.5147 C.3         1 INH      -0.0119
     10 C10       -23.0302   94.2296   78.4090 C.ar        1 INH      -0.0427
     11 C11       -24.3886   94.3255   78.0117 C.ar        1 INH      -0.0603
     12 C12       -24.9075   93.4838   77.0075 C.ar        1 INH      -0.0686
     13 C13       -24.0766   92.5420   76.3830 C.ar        1 INH      -0.0687
     14 C14       -22.7204   92.4432   76.7560 C.ar        1 INH      -0.0686
     15 C15       -22.2033   93.2841   77.7607 C.ar        1 INH      -0.0603
     16 C16       -20.9626   93.1900   81.8693 C.2         1 INH       0.2270
     17 O17       -20.8194   93.0876   83.0817 O.2         1 INH      -0.3907
     18 N18       -19.9356   93.4061   81.0592 N.am        1 INH      -0.2605
     19 C19       -18.5500   93.5269   81.3999 C.3         1 INH       0.1369
     20 C20       -17.9616   92.1354   81.8033 C.3         1 INH      -0.0087
     21 C21       -16.4733   91.9064   81.3904 C.3         1 INH      -0.0156
     22 C22       -15.8626   90.6072   81.9637 C.3         1 INH       0.0627
     23 N23       -16.1063   90.4459   83.3309 N.pl3       1 INH      -0.2723
     24 C24       -15.4686   90.9774   84.3053 C.cat       1 INH       0.2882
     25 N25       -15.8415   90.6845   85.4903 N.pl3       1 INH      -0.2849
     26 N26       -14.4739   91.7752   84.1871 N.pl3       1 INH      -0.2849
     27 C27       -17.8651   94.1349   80.2576 C.2         1 INH       0.2292
     28 O28       -17.6065   93.4156   79.2995 O.2         1 INH      -0.3823
     29 N29       -17.4760   95.4035   80.3321 N.am        1 INH      -0.2320
     30 C30       -16.7699   96.1841   79.4505 C.ar        1 INH       0.0663
     31 C31       -16.8136   96.0868   78.0369 C.ar        1 INH      -0.0413
     32 C32       -16.0769   96.9732   77.2273 C.ar        1 INH      -0.0755
     33 C33       -15.2839   97.9711   77.8212 C.ar        1 INH      -0.0772
     34 C34       -15.2286   98.0826   79.2186 C.ar        1 INH      -0.0755
     35 C35       -15.9670   97.1947   80.0237 C.ar        1 INH      -0.0413
     36 H1        -21.9374   89.1334   82.2188 H           1 INH       0.0303
     37 H2        -21.0593   90.5585   81.6873 H           1 INH       0.0303
     38 H3        -22.4449   89.9805   80.7439 H           1 INH       0.0303
     39 H4        -22.5200   91.1287   83.5873 H           1 INH       0.1023
     40 H5        -23.5791   92.9421   82.8584 H           1 INH       0.2052
     41 H6        -24.1202   92.2558   81.4627 H           1 INH       0.2052
     42 H7        -22.2142   92.5510   80.3356 H           1 INH       0.1101
     43 H8        -22.4974   95.2549   81.6765 H           1 INH       0.0368
     44 H9        -23.9466   94.5347   81.0196 H           1 INH       0.0368
     45 H10       -21.4205   95.2014   79.4335 H           1 INH       0.0429
     46 H11       -22.9243   96.0875   79.4080 H           1 INH       0.0429
     47 H12       -25.0090   95.0012   78.4613 H           1 INH       0.0557
     48 H13       -25.8871   93.5613   76.7372 H           1 INH       0.0599
     49 H14       -24.4522   91.9300   75.6549 H           1 INH       0.0559
     50 H15       -22.1265   91.7417   76.3096 H           1 INH       0.0599
     51 H16       -21.2226   93.1825   78.0216 H           1 INH       0.0557
     52 H17       -20.1501   93.4983   80.1168 H           1 INH       0.1885
     53 H18       -18.4704   94.1914   82.2702 H           1 INH       0.0805
     54 H19       -18.5723   91.3347   81.3578 H           1 INH       0.0314
     55 H20       -18.0398   92.0343   82.8953 H           1 INH       0.0314
     56 H21       -15.8611   92.7674   81.6941 H           1 INH       0.0301
     57 H22       -16.4170   91.8291   80.2990 H           1 INH       0.0301
     58 H23       -14.7813   90.5766   81.7682 H           1 INH       0.0689
     59 H24       -16.3018   89.7472   81.4426 H           1 INH       0.0689
     60 H25       -16.8279   89.8886   83.5438 H           1 INH       0.2642
     61 H26       -15.3916   91.0431   86.2290 H           1 INH       0.2615
     62 H27       -16.5420   90.0806   85.6210 H           1 INH       0.2615
     63 H28       -14.1655   92.0269   83.3375 H           1 INH       0.2615
     64 H29       -14.0556   92.1263   84.9481 H           1 INH       0.2615
     65 H30       -17.6866   95.8446   81.1751 H           1 INH       0.2257
     66 H31       -17.3968   95.3867   77.5712 H           1 INH       0.0502
     67 H32       -16.1288   96.9099   76.2101 H           1 INH       0.0577
     68 H33       -14.7453   98.6197   77.2365 H           1 INH       0.0487
     69 H34       -14.6485   98.8057   79.6565 H           1 INH       0.0577
     70 H35       -15.9159   97.2978   81.0418 H           1 INH       0.0502
@<TRIPOS>BOND
     1     1     2   1
     2     2     6   1
     3     2     3   1
     4     3     5  ar
     5     3     4  ar
     6     6     7   1
     7     7    16   1
     8     7     8   1
     9     8     9   1
    10     9    10   1
    11    10    15  ar
    12    10    11  ar
    13    11    12  ar
    14    12    13  ar
    15    13    14  ar
    16    14    15  ar
    17    16    18  am
    18    16    17   2
    19    18    19   1
    20    19    27   1
    21    19    20   1
    22    20    21   1
    23    21    22   1
    24    22    23   1
    25    23    24  ar
    26    24    26  ar
    27    24    25  ar
    28    27    29  am
    29    27    28   2
    30    29    30   1
    31    30    35  ar
    32    30    31  ar
    33    31    32  ar
    34    32    33  ar
    35    33    34  ar
    36    34    35  ar
    37     1    36   1
    38     1    37   1
    39     1    38   1
    40     2    39   1
    41     6    40   1
    42     6    41   1
    43     7    42   1
    44     8    43   1
    45     8    44   1
    46     9    45   1
    47     9    46   1
    48    11    47   1
    49    12    48   1
    50    13    49   1
    51    14    50   1
    52    15    51   1
    53    18    52   1
    54    19    53   1
    55    20    54   1
    56    20    55   1
    57    21    56   1
    58    21    57   1
    59    22    58   1
    60    22    59   1
    61    23    60   1
    62    25    61   1
    63    25    62   1
    64    26    63   1
    65    26    64   1
    66    29    65   1
    67    31    66   1
    68    32    67   1
    69    33    68   1
    70    34    69   1
    71    35    70   1
@<TRIPOS>SUBSTRUCTURE
     1  INH      1

