@<TRIPOS>MOLECULE
1sln_ligand_005
    70    71
SMALL
GAST_HUCK
****
This file was generated by PARSER (from files_GN.cpp)

@<TRIPOS>ATOM
      1 C1        -23.2428   90.5864   80.3709 C.3         1 INH      -0.0094
      2 C2        -22.4643   90.4466   81.7085 C.3         1 INH       0.0293
      3 C3        -23.1311   91.2032   82.7932 C.2         1 INH       0.0842
      4 O4        -22.4594   92.0734   83.5782 O.co2       1 INH      -0.5643
      5 O5        -24.3989   90.8808   83.1451 O.co2       1 INH      -0.5643
      6 N6        -20.9820   90.6029   81.5415 N.4         1 INH       0.2597
      7 C7        -20.2124   91.8734   81.3474 C.3         1 INH       0.0701
      8 C8        -21.0052   93.0989   80.7958 C.3         1 INH       0.0177
      9 C9        -20.1202   94.3344   80.4588 C.3         1 INH      -0.0119
     10 C10       -20.9245   95.5356   80.0950 C.ar        1 INH      -0.0427
     11 C11       -21.4423   96.3751   81.1107 C.ar        1 INH      -0.0603
     12 C12       -22.2429   97.4900   80.7969 C.ar        1 INH      -0.0686
     13 C13       -22.5374   97.7882   79.4524 C.ar        1 INH      -0.0687
     14 C14       -22.0353   96.9659   78.4273 C.ar        1 INH      -0.0686
     15 C15       -21.2288   95.8527   78.7439 C.ar        1 INH      -0.0603
     16 C16       -19.4326   92.1720   82.5510 C.2         1 INH       0.2270
     17 O17       -20.0211   92.4646   83.5841 O.2         1 INH      -0.3907
     18 N18       -18.1065   92.0475   82.5507 N.am        1 INH      -0.2605
     19 C19       -17.2391   91.9781   83.7057 C.3         1 INH       0.1369
     20 C20       -15.7876   91.6683   83.2029 C.3         1 INH      -0.0087
     21 C21       -14.8672   92.8786   82.8638 C.3         1 INH      -0.0156
     22 C22       -15.1371   93.5956   81.5145 C.3         1 INH       0.0627
     23 N23       -16.1238   94.5827   81.6002 N.pl3       1 INH      -0.2723
     24 C24       -16.5023   95.3625   80.6565 C.cat       1 INH       0.2882
     25 N25       -17.3742   96.2526   80.9367 N.pl3       1 INH      -0.2849
     26 N26       -16.0649   95.3226   79.4556 N.pl3       1 INH      -0.2849
     27 C27       -17.2805   93.1073   84.6429 C.2         1 INH       0.2292
     28 O28       -18.1935   93.9182   84.5752 O.2         1 INH      -0.3823
     29 N29       -16.3486   93.1864   85.5881 N.am        1 INH      -0.2320
     30 C30       -16.0796   94.1516   86.5224 C.ar        1 INH       0.0663
     31 C31       -16.4047   95.5241   86.4027 C.ar        1 INH      -0.0413
     32 C32       -16.0613   96.4368   87.4181 C.ar        1 INH      -0.0755
     33 C33       -15.3555   96.0031   88.5521 C.ar        1 INH      -0.0772
     34 C34       -14.9876   94.6515   88.6643 C.ar        1 INH      -0.0755
     35 C35       -15.3526   93.7317   87.6613 C.ar        1 INH      -0.0413
     36 H1        -24.1699   90.0069   80.4087 H           1 INH       0.0303
     37 H2        -22.6527   90.2152   79.5303 H           1 INH       0.0303
     38 H3        -23.5130   91.6224   80.1755 H           1 INH       0.0303
     39 H4        -22.5632   89.3962   81.9952 H           1 INH       0.1023
     40 H5        -20.7561   90.0329   80.7264 H           1 INH       0.2052
     41 H6        -20.5459   90.1083   82.3276 H           1 INH       0.2052
     42 H7        -19.4947   91.6220   80.5532 H           1 INH       0.1101
     43 H8        -21.7729   93.3978   81.5122 H           1 INH       0.0368
     44 H9        -21.4924   92.7958   79.8673 H           1 INH       0.0368
     45 H10       -19.4520   94.0737   79.6309 H           1 INH       0.0429
     46 H11       -19.5002   94.5857   81.3254 H           1 INH       0.0429
     47 H12       -21.2370   96.1771   82.0948 H           1 INH       0.0557
     48 H13       -22.6156   98.0832   81.5460 H           1 INH       0.0599
     49 H14       -23.1287   98.5938   79.2254 H           1 INH       0.0559
     50 H15       -22.2645   97.1776   77.4481 H           1 INH       0.0599
     51 H16       -20.8780   95.2664   77.9807 H           1 INH       0.0557
     52 H17       -17.6935   91.8401   81.6983 H           1 INH       0.1885
     53 H18       -17.5563   91.0934   84.2667 H           1 INH       0.0805
     54 H19       -15.8357   91.0146   82.3278 H           1 INH       0.0314
     55 H20       -15.2713   91.0946   83.9848 H           1 INH       0.0314
     56 H21       -13.8479   92.4968   82.8362 H           1 INH       0.0301
     57 H22       -14.9036   93.6094   83.6772 H           1 INH       0.0301
     58 H23       -15.3992   92.8598   80.7457 H           1 INH       0.0689
     59 H24       -14.2084   94.0879   81.2132 H           1 INH       0.0689
     60 H25       -16.5206   94.7143   82.4381 H           1 INH       0.2642
     61 H26       -17.6730   96.8461   80.2805 H           1 INH       0.2615
     62 H27       -17.7119   96.3153   81.8075 H           1 INH       0.2615
     63 H28       -15.4209   94.6866   79.2093 H           1 INH       0.2615
     64 H29       -16.3806   95.9260   78.8199 H           1 INH       0.2615
     65 H30       -15.7436   92.4251   85.6142 H           1 INH       0.2257
     66 H31       -16.8789   95.8902   85.5749 H           1 INH       0.0502
     67 H32       -16.3196   97.4257   87.3261 H           1 INH       0.0577
     68 H33       -15.0932   96.6671   89.2811 H           1 INH       0.0487
     69 H34       -14.4611   94.3300   89.4814 H           1 INH       0.0577
     70 H35       -15.0782   92.7505   87.7693 H           1 INH       0.0502
@<TRIPOS>BOND
     1     1     2   1
     2     2     6   1
     3     2     3   1
     4     3     5  ar
     5     3     4  ar
     6     6     7   1
     7     7    16   1
     8     7     8   1
     9     8     9   1
    10     9    10   1
    11    10    15  ar
    12    10    11  ar
    13    11    12  ar
    14    12    13  ar
    15    13    14  ar
    16    14    15  ar
    17    16    18  am
    18    16    17   2
    19    18    19   1
    20    19    27   1
    21    19    20   1
    22    20    21   1
    23    21    22   1
    24    22    23   1
    25    23    24  ar
    26    24    26  ar
    27    24    25  ar
    28    27    29  am
    29    27    28   2
    30    29    30   1
    31    30    35  ar
    32    30    31  ar
    33    31    32  ar
    34    32    33  ar
    35    33    34  ar
    36    34    35  ar
    37     1    36   1
    38     1    37   1
    39     1    38   1
    40     2    39   1
    41     6    40   1
    42     6    41   1
    43     7    42   1
    44     8    43   1
    45     8    44   1
    46     9    45   1
    47     9    46   1
    48    11    47   1
    49    12    48   1
    50    13    49   1
    51    14    50   1
    52    15    51   1
    53    18    52   1
    54    19    53   1
    55    20    54   1
    56    20    55   1
    57    21    56   1
    58    21    57   1
    59    22    58   1
    60    22    59   1
    61    23    60   1
    62    25    61   1
    63    25    62   1
    64    26    63   1
    65    26    64   1
    66    29    65   1
    67    31    66   1
    68    32    67   1
    69    33    68   1
    70    34    69   1
    71    35    70   1
@<TRIPOS>SUBSTRUCTURE
     1  INH      1

