@<TRIPOS>MOLECULE
1sln_ligand_025
    70    71
SMALL
GAST_HUCK
****
This file was generated by PARSER (from files_GN.cpp)

@<TRIPOS>ATOM
      1 C1        -23.8463   89.8257   81.8002 C.3         1 INH      -0.0094
      2 C2        -22.4474   90.5003   81.8535 C.3         1 INH       0.0293
      3 C3        -22.3891   91.6422   82.7993 C.2         1 INH       0.0842
      4 O4        -21.2121   91.9602   83.3839 O.co2       1 INH      -0.5643
      5 O5        -23.4979   92.1880   83.3460 O.co2       1 INH      -0.5643
      6 N6        -21.8989   90.7423   80.4831 N.4         1 INH       0.2597
      7 C7        -21.9003   92.0440   79.7480 C.3         1 INH       0.0701
      8 C8        -23.2667   92.8077   79.7635 C.3         1 INH       0.0177
      9 C9        -23.5112   93.7737   78.5687 C.3         1 INH      -0.0119
     10 C10       -23.6618   93.0830   77.2545 C.ar        1 INH      -0.0427
     11 C11       -24.7243   92.1690   77.0450 C.ar        1 INH      -0.0603
     12 C12       -24.8602   91.4882   75.8232 C.ar        1 INH      -0.0686
     13 C13       -23.9469   91.7279   74.7812 C.ar        1 INH      -0.0687
     14 C14       -22.8991   92.6468   74.9636 C.ar        1 INH      -0.0686
     15 C15       -22.7563   93.3174   76.1937 C.ar        1 INH      -0.0603
     16 C16       -20.7443   92.8638   80.1173 C.2         1 INH       0.2270
     17 O17       -20.7648   93.4779   81.1742 O.2         1 INH      -0.3907
     18 N18       -19.6735   92.9293   79.3322 N.am        1 INH      -0.2605
     19 C19       -18.4462   93.6484   79.5716 C.3         1 INH       0.1369
     20 C20       -18.6430   95.1904   79.7530 C.3         1 INH      -0.0087
     21 C21       -19.4717   95.8817   78.6323 C.3         1 INH      -0.0156
     22 C22       -18.7264   96.1015   77.2937 C.3         1 INH       0.0627
     23 N23       -17.7728   97.1216   77.4015 N.pl3       1 INH      -0.2723
     24 C24       -17.0166   97.5583   76.4669 C.cat       1 INH       0.2882
     25 N25       -16.9981   97.0991   75.2793 N.pl3       1 INH      -0.2849
     26 N26       -16.2378   98.5390   76.7367 N.pl3       1 INH      -0.2849
     27 C27       -17.6768   92.9677   80.6153 C.2         1 INH       0.2292
     28 O28       -17.1676   91.8977   80.2981 O.2         1 INH      -0.3823
     29 N29       -17.5347   93.4736   81.8379 N.am        1 INH      -0.2320
     30 C30       -16.8857   92.9788   82.9407 C.ar        1 INH       0.0663
     31 C31       -16.7440   91.6033   83.2489 C.ar        1 INH      -0.0413
     32 C32       -16.0932   91.1909   84.4285 C.ar        1 INH      -0.0755
     33 C33       -15.5705   92.1478   85.3153 C.ar        1 INH      -0.0772
     34 C34       -15.7076   93.5173   85.0273 C.ar        1 INH      -0.0755
     35 C35       -16.3716   93.9262   83.8572 C.ar        1 INH      -0.0413
     36 H1        -24.1299   89.4624   82.7901 H           1 INH       0.0303
     37 H2        -23.8307   88.9733   81.1230 H           1 INH       0.0303
     38 H3        -24.6188   90.5117   81.4644 H           1 INH       0.0303
     39 H4        -21.7961   89.7377   82.2863 H           1 INH       0.1023
     40 H5        -22.3845   90.0852   79.8722 H           1 INH       0.2052
     41 H6        -20.9251   90.4296   80.5039 H           1 INH       0.2052
     42 H7        -21.7429   91.7265   78.7145 H           1 INH       0.1101
     43 H8        -23.3573   93.3773   80.6931 H           1 INH       0.0368
     44 H9        -24.0731   92.0794   79.7634 H           1 INH       0.0368
     45 H10       -22.6937   94.4942   78.5422 H           1 INH       0.0429
     46 H11       -24.4267   94.3419   78.7561 H           1 INH       0.0429
     47 H12       -25.4059   91.9879   77.7861 H           1 INH       0.0557
     48 H13       -25.6211   90.8191   75.6920 H           1 INH       0.0599
     49 H14       -24.0512   91.2390   73.8884 H           1 INH       0.0559
     50 H15       -22.2400   92.8245   74.2036 H           1 INH       0.0599
     51 H16       -21.9831   93.9780   76.3086 H           1 INH       0.0557
     52 H17       -19.7123   92.4193   78.5026 H           1 INH       0.1885
     53 H18       -17.8645   93.5448   78.6522 H           1 INH       0.0805
     54 H19       -17.6653   95.6726   79.8238 H           1 INH       0.0314
     55 H20       -19.1580   95.3806   80.6995 H           1 INH       0.0314
     56 H21       -19.8196   96.8539   79.0003 H           1 INH       0.0301
     57 H22       -20.3649   95.2908   78.4304 H           1 INH       0.0301
     58 H23       -19.4688   96.3785   76.5371 H           1 INH       0.0689
     59 H24       -18.2513   95.1754   76.9695 H           1 INH       0.0689
     60 H25       -17.6931   97.5388   78.2354 H           1 INH       0.2642
     61 H26       -16.4318   97.4630   74.6303 H           1 INH       0.2615
     62 H27       -17.5527   96.3810   75.0437 H           1 INH       0.2615
     63 H28       -16.2346   98.9100   77.5919 H           1 INH       0.2615
     64 H29       -15.6827   98.8905   76.0737 H           1 INH       0.2615
     65 H30       -17.9220   94.3523   81.9705 H           1 INH       0.2257
     66 H31       -17.1312   90.8870   82.6328 H           1 INH       0.0502
     67 H32       -15.9987   90.1942   84.6390 H           1 INH       0.0577
     68 H33       -15.0936   91.8489   86.1685 H           1 INH       0.0487
     69 H34       -15.3190   94.2138   85.6651 H           1 INH       0.0577
     70 H35       -16.4630   94.9274   83.6691 H           1 INH       0.0502
@<TRIPOS>BOND
     1     1     2   1
     2     2     6   1
     3     2     3   1
     4     3     5  ar
     5     3     4  ar
     6     6     7   1
     7     7    16   1
     8     7     8   1
     9     8     9   1
    10     9    10   1
    11    10    15  ar
    12    10    11  ar
    13    11    12  ar
    14    12    13  ar
    15    13    14  ar
    16    14    15  ar
    17    16    18  am
    18    16    17   2
    19    18    19   1
    20    19    27   1
    21    19    20   1
    22    20    21   1
    23    21    22   1
    24    22    23   1
    25    23    24  ar
    26    24    26  ar
    27    24    25  ar
    28    27    29  am
    29    27    28   2
    30    29    30   1
    31    30    35  ar
    32    30    31  ar
    33    31    32  ar
    34    32    33  ar
    35    33    34  ar
    36    34    35  ar
    37     1    36   1
    38     1    37   1
    39     1    38   1
    40     2    39   1
    41     6    40   1
    42     6    41   1
    43     7    42   1
    44     8    43   1
    45     8    44   1
    46     9    45   1
    47     9    46   1
    48    11    47   1
    49    12    48   1
    50    13    49   1
    51    14    50   1
    52    15    51   1
    53    18    52   1
    54    19    53   1
    55    20    54   1
    56    20    55   1
    57    21    56   1
    58    21    57   1
    59    22    58   1
    60    22    59   1
    61    23    60   1
    62    25    61   1
    63    25    62   1
    64    26    63   1
    65    26    64   1
    66    29    65   1
    67    31    66   1
    68    32    67   1
    69    33    68   1
    70    34    69   1
    71    35    70   1
@<TRIPOS>SUBSTRUCTURE
     1  INH      1

