@<TRIPOS>MOLECULE
1sln_ligand_036
    70    71
SMALL
GAST_HUCK
****
This file was generated by PARSER (from files_GN.cpp)

@<TRIPOS>ATOM
      1 C1        -22.0130   89.8345   76.8800 C.3         1 INH      -0.0094
      2 C2        -22.8352   90.4041   78.0583 C.3         1 INH       0.0293
      3 C3        -23.7923   91.4237   77.5637 C.2         1 INH       0.0842
      4 O4        -24.8419   91.0543   76.7935 O.co2       1 INH      -0.5643
      5 O5        -23.5660   92.7463   77.7360 O.co2       1 INH      -0.5643
      6 N6        -21.8792   90.9295   79.0705 N.4         1 INH       0.2597
      7 C7        -22.4204   91.3891   80.3827 C.3         1 INH       0.0701
      8 C8        -22.3689   90.2510   81.4504 C.3         1 INH       0.0177
      9 C9        -22.8368   90.6204   82.8986 C.3         1 INH      -0.0119
     10 C10       -24.2517   90.2885   83.2364 C.ar        1 INH      -0.0427
     11 C11       -25.3158   91.1386   82.8466 C.ar        1 INH      -0.0603
     12 C12       -26.6467   90.8395   83.2008 C.ar        1 INH      -0.0686
     13 C13       -26.9348   89.6926   83.9611 C.ar        1 INH      -0.0687
     14 C14       -25.8916   88.8507   84.3791 C.ar        1 INH      -0.0686
     15 C15       -24.5636   89.1435   84.0123 C.ar        1 INH      -0.0603
     16 C16       -21.6613   92.5543   80.8175 C.2         1 INH       0.2270
     17 O17       -22.2914   93.5386   81.1825 O.2         1 INH      -0.3907
     18 N18       -20.3353   92.5107   80.9045 N.am        1 INH      -0.2605
     19 C19       -19.4812   93.4622   81.5696 C.3         1 INH       0.1369
     20 C20       -17.9782   93.1028   81.3613 C.3         1 INH      -0.0087
     21 C21       -17.5591   91.7321   81.9622 C.3         1 INH      -0.0156
     22 C22       -16.0356   91.4382   81.8601 C.3         1 INH       0.0627
     23 N23       -15.3084   91.6916   83.0309 N.pl3       1 INH      -0.2723
     24 C24       -15.4195   91.1043   84.1662 C.cat       1 INH       0.2882
     25 N25       -14.6237   91.4455   85.1047 N.pl3       1 INH      -0.2849
     26 N26       -16.2672   90.1837   84.4254 N.pl3       1 INH      -0.2849
     27 C27       -19.7568   94.8378   81.1586 C.2         1 INH       0.2292
     28 O28       -19.3990   95.2173   80.0487 O.2         1 INH      -0.3823
     29 N29       -20.5628   95.5771   81.9163 N.am        1 INH      -0.2320
     30 C30       -21.0508   96.8191   81.6469 C.ar        1 INH       0.0663
     31 C31       -22.4486   97.0062   81.6714 C.ar        1 INH      -0.0413
     32 C32       -23.0056   98.2720   81.4171 C.ar        1 INH      -0.0755
     33 C33       -22.1625   99.3724   81.1677 C.ar        1 INH      -0.0772
     34 C34       -20.7628   99.2041   81.1747 C.ar        1 INH      -0.0755
     35 C35       -20.2102   97.9282   81.4053 C.ar        1 INH      -0.0413
     36 H1        -22.6639   89.3556   76.1458 H           1 INH       0.0303
     37 H2        -21.2969   89.0956   77.2453 H           1 INH       0.0303
     38 H3        -21.4606   90.6335   76.3853 H           1 INH       0.0303
     39 H4        -23.4085   89.5846   78.5051 H           1 INH       0.1023
     40 H5        -21.3871   91.7096   78.6272 H           1 INH       0.2052
     41 H6        -21.1822   90.1995   79.2608 H           1 INH       0.2052
     42 H7        -23.4706   91.6781   80.2573 H           1 INH       0.1101
     43 H8        -21.3350   89.8926   81.5078 H           1 INH       0.0368
     44 H9        -22.9681   89.4097   81.0952 H           1 INH       0.0368
     45 H10       -22.6806   91.6814   83.1026 H           1 INH       0.0429
     46 H11       -22.1743   90.0931   83.5886 H           1 INH       0.0429
     47 H12       -25.1276   91.9932   82.3189 H           1 INH       0.0557
     48 H13       -27.4063   91.4602   82.9131 H           1 INH       0.0599
     49 H14       -27.9006   89.4701   84.2115 H           1 INH       0.0559
     50 H15       -26.0979   88.0208   84.9421 H           1 INH       0.0599
     51 H16       -23.8230   88.5109   84.3217 H           1 INH       0.0557
     52 H17       -19.9080   91.7038   80.5701 H           1 INH       0.1885
     53 H18       -19.6803   93.3636   82.6444 H           1 INH       0.0805
     54 H19       -17.3555   93.8882   81.8039 H           1 INH       0.0314
     55 H20       -17.7665   93.0760   80.2874 H           1 INH       0.0314
     56 H21       -18.0834   90.9467   81.4126 H           1 INH       0.0301
     57 H22       -17.8917   91.6770   83.0014 H           1 INH       0.0301
     58 H23       -15.6117   92.0552   81.0630 H           1 INH       0.0689
     59 H24       -15.8909   90.3932   81.5658 H           1 INH       0.0689
     60 H25       -14.6286   92.3317   82.9634 H           1 INH       0.2642
     61 H26       -14.6826   91.0319   85.9426 H           1 INH       0.2615
     62 H27       -13.9793   92.1085   84.9619 H           1 INH       0.2615
     63 H28       -16.8774   89.9053   83.7730 H           1 INH       0.2615
     64 H29       -16.2703   89.7709   85.2656 H           1 INH       0.2615
     65 H30       -20.9506   95.1324   82.6873 H           1 INH       0.2257
     66 H31       -23.0762   96.2156   81.8478 H           1 INH       0.0502
     67 H32       -24.0210   98.3940   81.4119 H           1 INH       0.0577
     68 H33       -22.5633  100.2935   80.9879 H           1 INH       0.0487
     69 H34       -20.1530  100.0065   81.0138 H           1 INH       0.0577
     70 H35       -19.1942   97.8174   81.4218 H           1 INH       0.0502
@<TRIPOS>BOND
     1     1     2   1
     2     2     6   1
     3     2     3   1
     4     3     5  ar
     5     3     4  ar
     6     6     7   1
     7     7    16   1
     8     7     8   1
     9     8     9   1
    10     9    10   1
    11    10    15  ar
    12    10    11  ar
    13    11    12  ar
    14    12    13  ar
    15    13    14  ar
    16    14    15  ar
    17    16    18  am
    18    16    17   2
    19    18    19   1
    20    19    27   1
    21    19    20   1
    22    20    21   1
    23    21    22   1
    24    22    23   1
    25    23    24  ar
    26    24    26  ar
    27    24    25  ar
    28    27    29  am
    29    27    28   2
    30    29    30   1
    31    30    35  ar
    32    30    31  ar
    33    31    32  ar
    34    32    33  ar
    35    33    34  ar
    36    34    35  ar
    37     1    36   1
    38     1    37   1
    39     1    38   1
    40     2    39   1
    41     6    40   1
    42     6    41   1
    43     7    42   1
    44     8    43   1
    45     8    44   1
    46     9    45   1
    47     9    46   1
    48    11    47   1
    49    12    48   1
    50    13    49   1
    51    14    50   1
    52    15    51   1
    53    18    52   1
    54    19    53   1
    55    20    54   1
    56    20    55   1
    57    21    56   1
    58    21    57   1
    59    22    58   1
    60    22    59   1
    61    23    60   1
    62    25    61   1
    63    25    62   1
    64    26    63   1
    65    26    64   1
    66    29    65   1
    67    31    66   1
    68    32    67   1
    69    33    68   1
    70    34    69   1
    71    35    70   1
@<TRIPOS>SUBSTRUCTURE
     1  INH      1

