@<TRIPOS>MOLECULE
1sln_ligand_052
    70    71
SMALL
GAST_HUCK
****
This file was generated by PARSER (from files_GN.cpp)

@<TRIPOS>ATOM
      1 C1         -9.7464   94.6630   87.1804 C.3         1 INH      -0.0094
      2 C2        -10.9113   95.3188   87.9467 C.3         1 INH       0.0293
      3 C3        -10.6767   95.3894   89.4004 C.2         1 INH       0.0842
      4 O4        -11.0449   96.5004   90.0824 O.co2       1 INH      -0.5643
      5 O5        -10.2260   94.3206   90.0924 O.co2       1 INH      -0.5643
      6 N6        -12.2259   94.7689   87.5361 N.4         1 INH       0.2597
      7 C7        -12.9548   93.6717   88.2583 C.3         1 INH       0.0701
      8 C8        -13.1848   93.9854   89.7915 C.3         1 INH       0.0177
      9 C9        -13.7066   95.4088   90.1677 C.3         1 INH      -0.0119
     10 C10       -13.4171   95.8521   91.5637 C.ar        1 INH      -0.0427
     11 C11       -12.7827   97.0986   91.8125 C.ar        1 INH      -0.0603
     12 C12       -12.5331   97.5348   93.1281 C.ar        1 INH      -0.0686
     13 C13       -12.9025   96.7306   94.2192 C.ar        1 INH      -0.0687
     14 C14       -13.5371   95.4942   93.9933 C.ar        1 INH      -0.0686
     15 C15       -13.7878   95.0660   92.6756 C.ar        1 INH      -0.0603
     16 C16       -14.2043   93.3593   87.5254 C.2         1 INH       0.2270
     17 O17       -15.1014   92.7596   88.1017 O.2         1 INH      -0.3907
     18 N18       -14.3810   93.6733   86.2390 N.am        1 INH      -0.2605
     19 C19       -15.6559   93.8861   85.5763 C.3         1 INH       0.1369
     20 C20       -16.3558   95.1736   86.1768 C.3         1 INH      -0.0087
     21 C21       -15.5509   95.9318   87.2675 C.3         1 INH      -0.0156
     22 C22       -16.2684   97.1446   87.9206 C.3         1 INH       0.0627
     23 N23       -15.5194   97.8168   88.8976 N.pl3       1 INH      -0.2723
     24 C24       -14.4245   98.4652   88.7714 C.cat       1 INH       0.2882
     25 N25       -13.9245   99.0043   89.8233 N.pl3       1 INH      -0.2849
     26 N26       -13.7686   98.6227   87.6826 N.pl3       1 INH      -0.2849
     27 C27       -15.5135   93.8301   84.1099 C.2         1 INH       0.2292
     28 O28       -14.7253   93.0063   83.6622 O.2         1 INH      -0.3823
     29 N29       -16.2597   94.5491   83.2738 N.am        1 INH      -0.2320
     30 C30       -16.2895   94.6140   81.8999 C.ar        1 INH       0.0663
     31 C31       -15.7952   93.6268   81.0115 C.ar        1 INH      -0.0413
     32 C32       -15.9140   93.7889   79.6170 C.ar        1 INH      -0.0755
     33 C33       -16.5470   94.9232   79.0829 C.ar        1 INH      -0.0772
     34 C34       -17.0548   95.9060   79.9466 C.ar        1 INH      -0.0755
     35 C35       -16.9288   95.7465   81.3389 C.ar        1 INH      -0.0413
     36 H1         -8.7848   95.0300   87.5383 H           1 INH       0.0303
     37 H2         -9.8333   94.9039   86.1204 H           1 INH       0.0303
     38 H3         -9.7833   93.5799   87.3015 H           1 INH       0.0303
     39 H4        -10.9316   96.3564   87.6144 H           1 INH       0.1023
     40 H5        -12.0679   94.4448   86.5800 H           1 INH       0.2052
     41 H6        -12.8675   95.5584   87.4688 H           1 INH       0.2052
     42 H7        -12.3404   92.7695   88.2041 H           1 INH       0.1101
     43 H8        -12.2516   93.8143   90.3316 H           1 INH       0.0368
     44 H9        -13.8690   93.2529   90.2105 H           1 INH       0.0368
     45 H10       -14.7915   95.4484   90.0172 H           1 INH       0.0429
     46 H11       -13.2647   96.1221   89.4818 H           1 INH       0.0429
     47 H12       -12.5109   97.7058   91.0423 H           1 INH       0.0557
     48 H13       -12.0975   98.4480   93.2918 H           1 INH       0.0599
     49 H14       -12.7257   97.0496   95.1752 H           1 INH       0.0559
     50 H15       -13.8127   94.9090   94.7833 H           1 INH       0.0599
     51 H16       -14.2469   94.1645   92.5318 H           1 INH       0.0557
     52 H17       -13.6059   93.9949   85.7499 H           1 INH       0.1885
     53 H18       -16.2900   93.0228   85.8140 H           1 INH       0.0805
     54 H19       -17.3025   94.8747   86.6334 H           1 INH       0.0314
     55 H20       -16.6107   95.9045   85.4073 H           1 INH       0.0314
     56 H21       -14.6061   96.2623   86.8356 H           1 INH       0.0301
     57 H22       -15.3315   95.2196   88.0638 H           1 INH       0.0301
     58 H23       -17.1500   96.7646   88.4331 H           1 INH       0.0689
     59 H24       -16.5990   97.8496   87.1550 H           1 INH       0.0689
     60 H25       -15.8736   97.7912   89.7675 H           1 INH       0.2642
     61 H26       -13.1261   99.4852   89.7687 H           1 INH       0.2615
     62 H27       -14.3711   98.9225   90.6414 H           1 INH       0.2615
     63 H28       -14.0798   98.2592   86.8880 H           1 INH       0.2615
     64 H29       -12.9555   99.0843   87.6902 H           1 INH       0.2615
     65 H30       -16.8653   95.1757   83.6882 H           1 INH       0.2257
     66 H31       -15.3701   92.7669   81.3644 H           1 INH       0.0502
     67 H32       -15.5440   93.0765   78.9835 H           1 INH       0.0577
     68 H33       -16.6378   95.0364   78.0693 H           1 INH       0.0487
     69 H34       -17.5101   96.7378   79.5667 H           1 INH       0.0577
     70 H35       -17.2933   96.4815   81.9441 H           1 INH       0.0502
@<TRIPOS>BOND
     1     1     2   1
     2     2     6   1
     3     2     3   1
     4     3     5  ar
     5     3     4  ar
     6     6     7   1
     7     7    16   1
     8     7     8   1
     9     8     9   1
    10     9    10   1
    11    10    15  ar
    12    10    11  ar
    13    11    12  ar
    14    12    13  ar
    15    13    14  ar
    16    14    15  ar
    17    16    18  am
    18    16    17   2
    19    18    19   1
    20    19    27   1
    21    19    20   1
    22    20    21   1
    23    21    22   1
    24    22    23   1
    25    23    24  ar
    26    24    26  ar
    27    24    25  ar
    28    27    29  am
    29    27    28   2
    30    29    30   1
    31    30    35  ar
    32    30    31  ar
    33    31    32  ar
    34    32    33  ar
    35    33    34  ar
    36    34    35  ar
    37     1    36   1
    38     1    37   1
    39     1    38   1
    40     2    39   1
    41     6    40   1
    42     6    41   1
    43     7    42   1
    44     8    43   1
    45     8    44   1
    46     9    45   1
    47     9    46   1
    48    11    47   1
    49    12    48   1
    50    13    49   1
    51    14    50   1
    52    15    51   1
    53    18    52   1
    54    19    53   1
    55    20    54   1
    56    20    55   1
    57    21    56   1
    58    21    57   1
    59    22    58   1
    60    22    59   1
    61    23    60   1
    62    25    61   1
    63    25    62   1
    64    26    63   1
    65    26    64   1
    66    29    65   1
    67    31    66   1
    68    32    67   1
    69    33    68   1
    70    34    69   1
    71    35    70   1
@<TRIPOS>SUBSTRUCTURE
     1  INH      1

