@<TRIPOS>MOLECULE
1sln_ligand_018
    70    71
SMALL
GAST_HUCK
****
This file was generated by PARSER (from files_GN.cpp)

@<TRIPOS>ATOM
      1 C1        -21.0372   94.0997   80.9561 C.3         1 INH      -0.0094
      2 C2        -20.7791   92.5773   80.8164 C.3         1 INH       0.0293
      3 C3        -21.3325   91.8252   81.9612 C.2         1 INH       0.0842
      4 O4        -22.0974   90.7245   81.7580 O.co2       1 INH      -0.5643
      5 O5        -21.1613   92.2497   83.2303 O.co2       1 INH      -0.5643
      6 N6        -19.3720   92.1594   80.5662 N.4         1 INH       0.2597
      7 C7        -18.2338   92.7880   81.3062 C.3         1 INH       0.0701
      8 C8        -17.1772   91.6941   81.6578 C.3         1 INH       0.0177
      9 C9        -15.7936   92.1766   82.1940 C.3         1 INH      -0.0119
     10 C10       -15.8066   92.6951   83.5871 C.ar        1 INH      -0.0427
     11 C11       -15.3012   91.9121   84.6548 C.ar        1 INH      -0.0603
     12 C12       -15.2657   92.4148   85.9658 C.ar        1 INH      -0.0686
     13 C13       -15.7473   93.7111   86.2371 C.ar        1 INH      -0.0687
     14 C14       -16.2414   94.5078   85.1877 C.ar        1 INH      -0.0686
     15 C15       -16.2583   94.0066   83.8724 C.ar        1 INH      -0.0603
     16 C16       -17.6611   93.8365   80.4644 C.2         1 INH       0.2270
     17 O17       -17.1628   93.5009   79.3947 O.2         1 INH      -0.3907
     18 N18       -17.6700   95.1093   80.8519 N.am        1 INH      -0.2605
     19 C19       -17.1919   96.2747   80.1526 C.3         1 INH       0.1369
     20 C20       -15.6642   96.2241   79.8217 C.3         1 INH      -0.0087
     21 C21       -15.0657   97.5628   79.2857 C.3         1 INH      -0.0156
     22 C22       -14.4056   98.4879   80.3619 C.3         1 INH       0.0627
     23 N23       -13.0295   98.6503   80.1453 N.pl3       1 INH      -0.2723
     24 C24       -12.2517   99.5482   80.6422 C.cat       1 INH       0.2882
     25 N25       -11.0280   99.5388   80.2714 N.pl3       1 INH      -0.2849
     26 N26       -12.6158  100.4454   81.4774 N.pl3       1 INH      -0.2849
     27 C27       -18.0671   96.5576   79.0138 C.2         1 INH       0.2292
     28 O28       -18.7209   97.5964   79.0163 O.2         1 INH      -0.3823
     29 N29       -18.1329   95.7150   77.9872 N.am        1 INH      -0.2320
     30 C30       -18.9483   95.7477   76.8978 C.ar        1 INH       0.0663
     31 C31       -20.3490   95.5459   76.9637 C.ar        1 INH      -0.0413
     32 C32       -21.1091   95.4469   75.7873 C.ar        1 INH      -0.0755
     33 C33       -20.4816   95.5524   74.5309 C.ar        1 INH      -0.0772
     34 C34       -19.0938   95.7616   74.4538 C.ar        1 INH      -0.0755
     35 C35       -18.3322   95.8596   75.6314 C.ar        1 INH      -0.0413
     36 H1        -22.1099   94.3003   81.0271 H           1 INH       0.0303
     37 H2        -20.6499   94.6274   80.0824 H           1 INH       0.0303
     38 H3        -20.5575   94.5032   81.8494 H           1 INH       0.0303
     39 H4        -21.3345   92.2542   79.9280 H           1 INH       0.1023
     40 H5        -19.2033   92.3001   79.5657 H           1 INH       0.2052
     41 H6        -19.3375   91.1452   80.7114 H           1 INH       0.2052
     42 H7        -18.5947   93.1973   82.2532 H           1 INH       0.1101
     43 H8        -16.9896   91.0965   80.7580 H           1 INH       0.0368
     44 H9        -17.6129   91.0128   82.3933 H           1 INH       0.0368
     45 H10       -15.3758   92.9357   81.5279 H           1 INH       0.0429
     46 H11       -15.1082   91.3222   82.1329 H           1 INH       0.0429
     47 H12       -14.9475   90.9680   84.4831 H           1 INH       0.0557
     48 H13       -14.8858   91.8442   86.7252 H           1 INH       0.0599
     49 H14       -15.7340   94.0739   87.1928 H           1 INH       0.0559
     50 H15       -16.5749   95.4532   85.3776 H           1 INH       0.0599
     51 H16       -16.5926   94.6128   83.1225 H           1 INH       0.0557
     52 H17       -18.0802   95.2897   81.7180 H           1 INH       0.1885
     53 H18       -17.3018   97.0855   80.8832 H           1 INH       0.0805
     54 H19       -15.4828   95.4505   79.0717 H           1 INH       0.0314
     55 H20       -15.1116   95.9164   80.7136 H           1 INH       0.0314
     56 H21       -15.8443   98.1299   78.7700 H           1 INH       0.0301
     57 H22       -14.3293   97.3163   78.5132 H           1 INH       0.0301
     58 H23       -14.5593   98.0912   81.3709 H           1 INH       0.0689
     59 H24       -14.8831   99.4736   80.3260 H           1 INH       0.0689
     60 H25       -12.6255   98.0598   79.5438 H           1 INH       0.2642
     61 H26       -10.4325  100.1755   80.6083 H           1 INH       0.2615
     62 H27       -10.7281   98.8956   79.6592 H           1 INH       0.2615
     63 H28       -13.5018  100.4814   81.7755 H           1 INH       0.2615
     64 H29       -11.9907  101.0652   81.7954 H           1 INH       0.2615
     65 H30       -17.4887   94.9948   77.9884 H           1 INH       0.2257
     66 H31       -20.8169   95.4183   77.8632 H           1 INH       0.0502
     67 H32       -22.1161   95.2892   75.8372 H           1 INH       0.0577
     68 H33       -21.0304   95.4721   73.6710 H           1 INH       0.0487
     69 H34       -18.6300   95.8406   73.5425 H           1 INH       0.0577
     70 H35       -17.3268   96.0007   75.5667 H           1 INH       0.0502
@<TRIPOS>BOND
     1     1     2   1
     2     2     6   1
     3     2     3   1
     4     3     5  ar
     5     3     4  ar
     6     6     7   1
     7     7    16   1
     8     7     8   1
     9     8     9   1
    10     9    10   1
    11    10    15  ar
    12    10    11  ar
    13    11    12  ar
    14    12    13  ar
    15    13    14  ar
    16    14    15  ar
    17    16    18  am
    18    16    17   2
    19    18    19   1
    20    19    27   1
    21    19    20   1
    22    20    21   1
    23    21    22   1
    24    22    23   1
    25    23    24  ar
    26    24    26  ar
    27    24    25  ar
    28    27    29  am
    29    27    28   2
    30    29    30   1
    31    30    35  ar
    32    30    31  ar
    33    31    32  ar
    34    32    33  ar
    35    33    34  ar
    36    34    35  ar
    37     1    36   1
    38     1    37   1
    39     1    38   1
    40     2    39   1
    41     6    40   1
    42     6    41   1
    43     7    42   1
    44     8    43   1
    45     8    44   1
    46     9    45   1
    47     9    46   1
    48    11    47   1
    49    12    48   1
    50    13    49   1
    51    14    50   1
    52    15    51   1
    53    18    52   1
    54    19    53   1
    55    20    54   1
    56    20    55   1
    57    21    56   1
    58    21    57   1
    59    22    58   1
    60    22    59   1
    61    23    60   1
    62    25    61   1
    63    25    62   1
    64    26    63   1
    65    26    64   1
    66    29    65   1
    67    31    66   1
    68    32    67   1
    69    33    68   1
    70    34    69   1
    71    35    70   1
@<TRIPOS>SUBSTRUCTURE
     1  INH      1

