@<TRIPOS>MOLECULE
1sln_ligand_020
    70    71
SMALL
GAST_HUCK
****
This file was generated by PARSER (from files_GN.cpp)

@<TRIPOS>ATOM
      1 C1        -22.4465   90.7085   80.3514 C.3         1 INH      -0.0094
      2 C2        -21.4191   90.6983   81.5129 C.3         1 INH       0.0293
      3 C3        -21.9647   91.1828   82.7977 C.2         1 INH       0.0842
      4 O4        -21.1377   91.8002   83.6726 O.co2       1 INH      -0.5643
      5 O5        -23.1487   90.7271   83.2704 O.co2       1 INH      -0.5643
      6 N6        -20.1267   91.3599   81.1775 N.4         1 INH       0.2597
      7 C7        -19.9833   92.7978   80.7779 C.3         1 INH       0.0701
      8 C8        -20.9120   93.8065   81.5355 C.3         1 INH       0.0177
      9 C9        -20.9917   95.2275   80.9010 C.3         1 INH      -0.0119
     10 C10       -22.1626   96.0119   81.3921 C.ar        1 INH      -0.0427
     11 C11       -23.4799   95.5384   81.1740 C.ar        1 INH      -0.0603
     12 C12       -24.5914   96.2657   81.6394 C.ar        1 INH      -0.0686
     13 C13       -24.4020   97.4712   82.3348 C.ar        1 INH      -0.0687
     14 C14       -23.0989   97.9557   82.5539 C.ar        1 INH      -0.0686
     15 C15       -21.9873   97.2326   82.0874 C.ar        1 INH      -0.0603
     16 C16       -18.5457   93.0942   80.8220 C.2         1 INH       0.2270
     17 O17       -17.8127   92.4403   80.0846 O.2         1 INH      -0.3907
     18 N18       -18.0093   93.9905   81.6550 N.am        1 INH      -0.2605
     19 C19       -16.6250   94.3379   81.8877 C.3         1 INH       0.1369
     20 C20       -15.8650   93.4847   82.9792 C.3         1 INH      -0.0087
     21 C21       -16.5805   92.2356   83.5739 C.3         1 INH      -0.0156
     22 C22       -15.6474   91.1536   84.2065 C.3         1 INH       0.0627
     23 N23       -15.3545   91.2878   85.5690 N.pl3       1 INH      -0.2723
     24 C24       -14.6024   92.1397   86.1640 C.cat       1 INH       0.2882
     25 N25       -14.4631   92.0463   87.4321 N.pl3       1 INH      -0.2849
     26 N26       -13.9703   93.0868   85.5780 N.pl3       1 INH      -0.2849
     27 C27       -15.8356   94.5385   80.6642 C.2         1 INH       0.2292
     28 O28       -15.4091   93.5423   80.0927 O.2         1 INH      -0.3823
     29 N29       -15.6725   95.7544   80.1498 N.am        1 INH      -0.2320
     30 C30       -14.9781   96.1213   79.0256 C.ar        1 INH       0.0663
     31 C31       -15.4413   97.2521   78.3163 C.ar        1 INH      -0.0413
     32 C32       -14.7932   97.6793   77.1434 C.ar        1 INH      -0.0755
     33 C33       -13.6540   96.9968   76.6800 C.ar        1 INH      -0.0772
     34 C34       -13.1539   95.8963   77.3993 C.ar        1 INH      -0.0755
     35 C35       -13.8100   95.4633   78.5665 C.ar        1 INH      -0.0413
     36 H1        -23.2931   90.0625   80.5898 H           1 INH       0.0303
     37 H2        -21.9754   90.3349   79.4415 H           1 INH       0.0303
     38 H3        -22.8245   91.7131   80.1613 H           1 INH       0.0303
     39 H4        -21.1641   89.6480   81.6832 H           1 INH       0.1023
     40 H5        -19.7682   90.8372   80.3751 H           1 INH       0.2052
     41 H6        -19.4884   91.1502   81.9477 H           1 INH       0.2052
     42 H7        -20.2849   92.8475   79.7258 H           1 INH       0.1101
     43 H8        -20.6101   93.8858   82.5873 H           1 INH       0.0368
     44 H9        -21.9270   93.4065   81.5284 H           1 INH       0.0368
     45 H10       -21.0721   95.1444   79.8128 H           1 INH       0.0429
     46 H11       -20.0596   95.7605   81.1085 H           1 INH       0.0429
     47 H12       -23.6392   94.6637   80.6650 H           1 INH       0.0557
     48 H13       -25.5363   95.9171   81.4692 H           1 INH       0.0599
     49 H14       -25.2065   98.0019   82.6713 H           1 INH       0.0559
     50 H15       -22.9630   98.8356   83.0530 H           1 INH       0.0599
     51 H16       -21.0471   97.5980   82.2590 H           1 INH       0.0557
     52 H17       -18.6343   94.4902   82.2008 H           1 INH       0.1885
     53 H18       -16.7239   95.3306   82.3429 H           1 INH       0.0805
     54 H19       -15.6194   94.1407   83.8212 H           1 INH       0.0314
     55 H20       -14.9051   93.1499   82.5819 H           1 INH       0.0314
     56 H21       -17.1264   91.7438   82.7657 H           1 INH       0.0301
     57 H22       -17.3163   92.5604   84.3153 H           1 INH       0.0301
     58 H23       -14.7229   91.0453   83.6328 H           1 INH       0.0689
     59 H24       -16.1647   90.1927   84.1284 H           1 INH       0.0689
     60 H25       -15.7181   90.6272   86.1218 H           1 INH       0.2642
     61 H26       -13.9176   92.6543   87.8897 H           1 INH       0.2615
     62 H27       -14.9008   91.3714   87.9056 H           1 INH       0.2615
     63 H28       -14.0162   93.1683   84.6509 H           1 INH       0.2615
     64 H29       -13.4341   93.6723   86.0758 H           1 INH       0.2615
     65 H30       -16.1753   96.4666   80.5808 H           1 INH       0.2257
     66 H31       -16.2660   97.7627   78.6454 H           1 INH       0.0502
     67 H32       -15.1525   98.4842   76.6250 H           1 INH       0.0577
     68 H33       -13.1887   97.3046   75.8251 H           1 INH       0.0487
     69 H34       -12.3156   95.4110   77.0745 H           1 INH       0.0577
     70 H35       -13.4128   94.6796   79.0906 H           1 INH       0.0502
@<TRIPOS>BOND
     1     1     2   1
     2     2     6   1
     3     2     3   1
     4     3     5  ar
     5     3     4  ar
     6     6     7   1
     7     7    16   1
     8     7     8   1
     9     8     9   1
    10     9    10   1
    11    10    15  ar
    12    10    11  ar
    13    11    12  ar
    14    12    13  ar
    15    13    14  ar
    16    14    15  ar
    17    16    18  am
    18    16    17   2
    19    18    19   1
    20    19    27   1
    21    19    20   1
    22    20    21   1
    23    21    22   1
    24    22    23   1
    25    23    24  ar
    26    24    26  ar
    27    24    25  ar
    28    27    29  am
    29    27    28   2
    30    29    30   1
    31    30    35  ar
    32    30    31  ar
    33    31    32  ar
    34    32    33  ar
    35    33    34  ar
    36    34    35  ar
    37     1    36   1
    38     1    37   1
    39     1    38   1
    40     2    39   1
    41     6    40   1
    42     6    41   1
    43     7    42   1
    44     8    43   1
    45     8    44   1
    46     9    45   1
    47     9    46   1
    48    11    47   1
    49    12    48   1
    50    13    49   1
    51    14    50   1
    52    15    51   1
    53    18    52   1
    54    19    53   1
    55    20    54   1
    56    20    55   1
    57    21    56   1
    58    21    57   1
    59    22    58   1
    60    22    59   1
    61    23    60   1
    62    25    61   1
    63    25    62   1
    64    26    63   1
    65    26    64   1
    66    29    65   1
    67    31    66   1
    68    32    67   1
    69    33    68   1
    70    34    69   1
    71    35    70   1
@<TRIPOS>SUBSTRUCTURE
     1  INH      1

