@<TRIPOS>MOLECULE
1sln_ligand_039
    70    71
SMALL
GAST_HUCK
****
This file was generated by PARSER (from files_GN.cpp)

@<TRIPOS>ATOM
      1 C1        -24.3073   95.9779   81.1168 C.3         1 INH      -0.0094
      2 C2        -23.7021   97.2679   81.7367 C.3         1 INH       0.0293
      3 C3        -24.2307   98.5154   81.1393 C.2         1 INH       0.0842
      4 O4        -24.6246   98.5903   79.8517 O.co2       1 INH      -0.5643
      5 O5        -24.3010   99.6341   81.8934 O.co2       1 INH      -0.5643
      6 N6        -22.2113   97.3064   81.7875 N.4         1 INH       0.2597
      7 C7        -21.4413   97.1223   80.5211 C.3         1 INH       0.0701
      8 C8        -20.1847   98.0430   80.4694 C.3         1 INH       0.0177
      9 C9        -20.4579   99.5668   80.2656 C.3         1 INH      -0.0119
     10 C10       -21.5658   99.9381   79.3329 C.ar        1 INH      -0.0427
     11 C11       -21.6276   99.4114   78.0183 C.ar        1 INH      -0.0603
     12 C12       -22.7163   99.7011   77.1740 C.ar        1 INH      -0.0686
     13 C13       -23.7397  100.5572   77.6166 C.ar        1 INH      -0.0687
     14 C14       -23.6644  101.1372   78.8915 C.ar        1 INH      -0.0686
     15 C15       -22.5831  100.8317   79.7420 C.ar        1 INH      -0.0603
     16 C16       -21.0753   95.7116   80.3354 C.2         1 INH       0.2270
     17 O17       -21.5670   95.1061   79.3888 O.2         1 INH      -0.3907
     18 N18       -20.2838   95.0827   81.2086 N.am        1 INH      -0.2605
     19 C19       -19.9936   93.6716   81.2408 C.3         1 INH       0.1369
     20 C20       -18.4667   93.4126   81.4945 C.3         1 INH      -0.0087
     21 C21       -18.1469   91.9487   81.9293 C.3         1 INH      -0.0156
     22 C22       -16.6708   91.4987   81.7512 C.3         1 INH       0.0627
     23 N23       -15.7979   91.8259   82.7990 N.pl3       1 INH      -0.2723
     24 C24       -15.6292   91.2085   83.9104 C.cat       1 INH       0.2882
     25 N25       -14.7042   91.6216   84.6797 N.pl3       1 INH      -0.2849
     26 N26       -16.3053   90.1926   84.2949 N.pl3       1 INH      -0.2849
     27 C27       -20.8993   93.0687   82.2119 C.2         1 INH       0.2292
     28 O28       -20.5868   93.0606   83.3962 O.2         1 INH      -0.3823
     29 N29       -22.0744   92.5889   81.8118 N.am        1 INH      -0.2320
     30 C30       -22.9490   91.8844   82.5779 C.ar        1 INH       0.0663
     31 C31       -22.7034   90.5326   82.8988 C.ar        1 INH      -0.0413
     32 C32       -23.6505   89.7902   83.6289 C.ar        1 INH      -0.0755
     33 C33       -24.8522   90.3894   84.0433 C.ar        1 INH      -0.0772
     34 C34       -25.1080   91.7389   83.7280 C.ar        1 INH      -0.0755
     35 C35       -24.1635   92.4788   82.9899 C.ar        1 INH      -0.0413
     36 H1        -25.3759   95.9333   81.3183 H           1 INH       0.0303
     37 H2        -23.8262   95.1075   81.5517 H           1 INH       0.0303
     38 H3        -24.1595   95.9542   80.0365 H           1 INH       0.0303
     39 H4        -24.0305   97.2757   82.7848 H           1 INH       0.1023
     40 H5        -21.9005   96.6000   82.4558 H           1 INH       0.2052
     41 H6        -21.9504   98.2158   82.1764 H           1 INH       0.2052
     42 H7        -22.0776   97.4190   79.6820 H           1 INH       0.1101
     43 H8        -19.5383   97.7137   79.6474 H           1 INH       0.0368
     44 H9        -19.6148   97.9182   81.3918 H           1 INH       0.0368
     45 H10       -19.5478  100.0229   79.8739 H           1 INH       0.0429
     46 H11       -20.6284  100.0096   81.2516 H           1 INH       0.0429
     47 H12       -20.8959   98.7818   77.6760 H           1 INH       0.0557
     48 H13       -22.7677   99.2797   76.2434 H           1 INH       0.0599
     49 H14       -24.5363  100.7581   77.0065 H           1 INH       0.0559
     50 H15       -24.4017  101.7699   79.2100 H           1 INH       0.0599
     51 H16       -22.5538  101.2633   80.6669 H           1 INH       0.0557
     52 H17       -19.9304   95.6135   81.9423 H           1 INH       0.1885
     53 H18       -20.2043   93.2174   80.2631 H           1 INH       0.0805
     54 H19       -18.0944   94.1076   82.2507 H           1 INH       0.0314
     55 H20       -17.9393   93.6305   80.5633 H           1 INH       0.0314
     56 H21       -18.7609   91.2751   81.3244 H           1 INH       0.0301
     57 H22       -18.4406   91.8169   82.9661 H           1 INH       0.0301
     58 H23       -16.2762   91.9424   80.8371 H           1 INH       0.0689
     59 H24       -16.6497   90.4119   81.5976 H           1 INH       0.0689
     60 H25       -15.2153   92.5402   82.6329 H           1 INH       0.2642
     61 H26       -14.5403   91.1896   85.4967 H           1 INH       0.2615
     62 H27       -14.1713   92.3529   84.4297 H           1 INH       0.2615
     63 H28       -16.9960   89.8516   83.7618 H           1 INH       0.2615
     64 H29       -16.1092   89.7767   85.1140 H           1 INH       0.2615
     65 H30       -22.3120   92.7120   80.8822 H           1 INH       0.2257
     66 H31       -21.8416   90.0854   82.5886 H           1 INH       0.0502
     67 H32       -23.4629   88.8123   83.8639 H           1 INH       0.0577
     68 H33       -25.5383   89.8501   84.5784 H           1 INH       0.0487
     69 H34       -25.9860   92.1749   84.0305 H           1 INH       0.0577
     70 H35       -24.3740   93.4519   82.7723 H           1 INH       0.0502
@<TRIPOS>BOND
     1     1     2   1
     2     2     6   1
     3     2     3   1
     4     3     5  ar
     5     3     4  ar
     6     6     7   1
     7     7    16   1
     8     7     8   1
     9     8     9   1
    10     9    10   1
    11    10    15  ar
    12    10    11  ar
    13    11    12  ar
    14    12    13  ar
    15    13    14  ar
    16    14    15  ar
    17    16    18  am
    18    16    17   2
    19    18    19   1
    20    19    27   1
    21    19    20   1
    22    20    21   1
    23    21    22   1
    24    22    23   1
    25    23    24  ar
    26    24    26  ar
    27    24    25  ar
    28    27    29  am
    29    27    28   2
    30    29    30   1
    31    30    35  ar
    32    30    31  ar
    33    31    32  ar
    34    32    33  ar
    35    33    34  ar
    36    34    35  ar
    37     1    36   1
    38     1    37   1
    39     1    38   1
    40     2    39   1
    41     6    40   1
    42     6    41   1
    43     7    42   1
    44     8    43   1
    45     8    44   1
    46     9    45   1
    47     9    46   1
    48    11    47   1
    49    12    48   1
    50    13    49   1
    51    14    50   1
    52    15    51   1
    53    18    52   1
    54    19    53   1
    55    20    54   1
    56    20    55   1
    57    21    56   1
    58    21    57   1
    59    22    58   1
    60    22    59   1
    61    23    60   1
    62    25    61   1
    63    25    62   1
    64    26    63   1
    65    26    64   1
    66    29    65   1
    67    31    66   1
    68    32    67   1
    69    33    68   1
    70    34    69   1
    71    35    70   1
@<TRIPOS>SUBSTRUCTURE
     1  INH      1

