@<TRIPOS>MOLECULE
1sln_ligand_037
    70    71
SMALL
GAST_HUCK
****
This file was generated by PARSER (from files_GN.cpp)

@<TRIPOS>ATOM
      1 C1        -24.6721   89.8693   83.7874 C.3         1 INH      -0.0094
      2 C2        -23.6956   90.8206   83.0620 C.3         1 INH       0.0293
      3 C3        -24.4494   91.7816   82.2299 C.2         1 INH       0.0842
      4 O4        -24.2872   93.1179   82.3979 O.co2       1 INH      -0.5643
      5 O5        -25.3473   91.3774   81.2963 O.co2       1 INH      -0.5643
      6 N6        -22.6873   89.9956   82.3188 N.4         1 INH       0.2597
      7 C7        -21.6630   90.5738   81.4061 C.3         1 INH       0.0701
      8 C8        -22.2926   91.0296   80.0417 C.3         1 INH       0.0177
      9 C9        -21.3424   90.9465   78.8113 C.3         1 INH      -0.0119
     10 C10       -21.9332   91.5143   77.5668 C.ar        1 INH      -0.0427
     11 C11       -22.2720   92.8859   77.5006 C.ar        1 INH      -0.0603
     12 C12       -22.8147   93.4383   76.3251 C.ar        1 INH      -0.0686
     13 C13       -23.0175   92.6292   75.1952 C.ar        1 INH      -0.0687
     14 C14       -22.6711   91.2688   75.2390 C.ar        1 INH      -0.0686
     15 C15       -22.1357   90.7135   76.4161 C.ar        1 INH      -0.0603
     16 C16       -20.7616   91.5867   81.9629 C.2         1 INH       0.2270
     17 O17       -21.0974   92.2626   82.9366 O.2         1 INH      -0.3907
     18 N18       -19.5675   91.7767   81.4067 N.am        1 INH      -0.2605
     19 C19       -18.5985   92.8227   81.6345 C.3         1 INH       0.1369
     20 C20       -19.0185   94.1664   80.9375 C.3         1 INH      -0.0087
     21 C21       -18.6467   94.2370   79.4301 C.3         1 INH      -0.0156
     22 C22       -19.4115   95.3382   78.6461 C.3         1 INH       0.0627
     23 N23       -18.9261   95.4158   77.3335 N.pl3       1 INH      -0.2723
     24 C24       -19.4399   96.0579   76.3506 C.cat       1 INH       0.2882
     25 N25       -18.8198   96.0217   75.2261 N.pl3       1 INH      -0.2849
     26 N26       -20.5205   96.7432   76.4063 N.pl3       1 INH      -0.2849
     27 C27       -18.2442   92.9993   83.0358 C.2         1 INH       0.2292
     28 O28       -19.1352   93.3095   83.8195 O.2         1 INH      -0.3823
     29 N29       -16.9946   92.8039   83.4639 N.am        1 INH      -0.2320
     30 C30       -16.4773   93.0932   84.7014 C.ar        1 INH       0.0663
     31 C31       -16.6808   94.3372   85.3584 C.ar        1 INH      -0.0413
     32 C32       -16.1266   94.5772   86.6247 C.ar        1 INH      -0.0755
     33 C33       -15.3469   93.5910   87.2432 C.ar        1 INH      -0.0772
     34 C34       -15.0928   92.3738   86.5918 C.ar        1 INH      -0.0755
     35 C35       -15.6482   92.1273   85.3235 C.ar        1 INH      -0.0413
     36 H1        -25.3645   90.4397   84.4190 H           1 INH       0.0303
     37 H2        -24.1275   89.1690   84.4203 H           1 INH       0.0303
     38 H3        -25.2590   89.2877   83.0662 H           1 INH       0.0303
     39 H4        -23.1627   91.3700   83.8276 H           1 INH       0.1023
     40 H5        -23.2212   89.3305   81.7502 H           1 INH       0.2052
     41 H6        -22.1761   89.4519   83.0235 H           1 INH       0.2052
     42 H7        -21.0439   89.6969   81.1865 H           1 INH       0.1101
     43 H8        -22.6782   92.0398   80.1553 H           1 INH       0.0368
     44 H9        -23.1468   90.3814   79.8138 H           1 INH       0.0368
     45 H10       -21.0675   89.9003   78.6606 H           1 INH       0.0429
     46 H11       -20.4142   91.4863   79.0222 H           1 INH       0.0429
     47 H12       -22.1121   93.4979   78.3067 H           1 INH       0.0557
     48 H13       -23.0536   94.4311   76.2944 H           1 INH       0.0599
     49 H14       -23.3985   93.0303   74.3418 H           1 INH       0.0559
     50 H15       -22.8015   90.6805   74.4138 H           1 INH       0.0599
     51 H16       -21.8850   89.7189   76.4240 H           1 INH       0.0557
     52 H17       -19.3336   91.1457   80.7083 H           1 INH       0.1885
     53 H18       -17.6941   92.4851   81.1109 H           1 INH       0.0805
     54 H19       -18.5239   95.0156   81.4290 H           1 INH       0.0314
     55 H20       -20.1018   94.3191   81.0597 H           1 INH       0.0314
     56 H21       -18.8532   93.2722   78.9585 H           1 INH       0.0301
     57 H22       -17.5799   94.4394   79.3442 H           1 INH       0.0301
     58 H23       -19.2799   96.3067   79.1408 H           1 INH       0.0689
     59 H24       -20.4798   95.0934   78.6311 H           1 INH       0.0689
     60 H25       -18.1387   94.9446   77.1529 H           1 INH       0.2642
     61 H26       -19.1718   96.4716   74.4883 H           1 INH       0.2615
     62 H27       -18.0335   95.5279   75.1446 H           1 INH       0.2615
     63 H28       -20.9940   96.8073   77.2057 H           1 INH       0.2615
     64 H29       -20.8255   97.1891   75.6454 H           1 INH       0.2615
     65 H30       -16.3961   92.3722   82.8425 H           1 INH       0.2257
     66 H31       -17.2119   95.0793   84.9037 H           1 INH       0.0502
     67 H32       -16.2893   95.4729   87.0861 H           1 INH       0.0577
     68 H33       -14.9504   93.7647   88.1770 H           1 INH       0.0487
     69 H34       -14.5090   91.6663   87.0345 H           1 INH       0.0577
     70 H35       -15.4546   91.2380   84.8519 H           1 INH       0.0502
@<TRIPOS>BOND
     1     1     2   1
     2     2     6   1
     3     2     3   1
     4     3     5  ar
     5     3     4  ar
     6     6     7   1
     7     7    16   1
     8     7     8   1
     9     8     9   1
    10     9    10   1
    11    10    15  ar
    12    10    11  ar
    13    11    12  ar
    14    12    13  ar
    15    13    14  ar
    16    14    15  ar
    17    16    18  am
    18    16    17   2
    19    18    19   1
    20    19    27   1
    21    19    20   1
    22    20    21   1
    23    21    22   1
    24    22    23   1
    25    23    24  ar
    26    24    26  ar
    27    24    25  ar
    28    27    29  am
    29    27    28   2
    30    29    30   1
    31    30    35  ar
    32    30    31  ar
    33    31    32  ar
    34    32    33  ar
    35    33    34  ar
    36    34    35  ar
    37     1    36   1
    38     1    37   1
    39     1    38   1
    40     2    39   1
    41     6    40   1
    42     6    41   1
    43     7    42   1
    44     8    43   1
    45     8    44   1
    46     9    45   1
    47     9    46   1
    48    11    47   1
    49    12    48   1
    50    13    49   1
    51    14    50   1
    52    15    51   1
    53    18    52   1
    54    19    53   1
    55    20    54   1
    56    20    55   1
    57    21    56   1
    58    21    57   1
    59    22    58   1
    60    22    59   1
    61    23    60   1
    62    25    61   1
    63    25    62   1
    64    26    63   1
    65    26    64   1
    66    29    65   1
    67    31    66   1
    68    32    67   1
    69    33    68   1
    70    34    69   1
    71    35    70   1
@<TRIPOS>SUBSTRUCTURE
     1  INH      1

