@<TRIPOS>MOLECULE
1sln_ligand_022
    70    71
SMALL
GAST_HUCK
****
This file was generated by PARSER (from files_GN.cpp)

@<TRIPOS>ATOM
      1 C1        -19.5232   92.1434   79.0283 C.3         1 INH      -0.0094
      2 C2        -21.0163   91.8279   78.7336 C.3         1 INH       0.0293
      3 C3        -21.8125   92.9958   78.2728 C.2         1 INH       0.0842
      4 O4        -21.2360   94.1683   77.9139 O.co2       1 INH      -0.5643
      5 O5        -23.1494   92.8764   78.1109 O.co2       1 INH      -0.5643
      6 N6        -21.6515   91.0276   79.8299 N.4         1 INH       0.2597
      7 C7        -22.4268   91.6437   80.9622 C.3         1 INH       0.0701
      8 C8        -23.3027   90.5279   81.6393 C.3         1 INH       0.0177
      9 C9        -24.7058   90.2960   80.9980 C.3         1 INH      -0.0119
     10 C10       -24.7722   89.2538   79.9370 C.ar        1 INH      -0.0427
     11 C11       -24.9067   87.8894   80.2923 C.ar        1 INH      -0.0603
     12 C12       -25.1044   86.9026   79.3075 C.ar        1 INH      -0.0686
     13 C13       -25.1322   87.2605   77.9513 C.ar        1 INH      -0.0687
     14 C14       -24.9710   88.6057   77.5765 C.ar        1 INH      -0.0686
     15 C15       -24.8006   89.5969   78.5649 C.ar        1 INH      -0.0603
     16 C16       -21.5927   92.3947   81.9200 C.2         1 INH       0.2270
     17 O17       -21.6138   92.1573   83.1248 O.2         1 INH      -0.3907
     18 N18       -20.9056   93.4410   81.4788 N.am        1 INH      -0.2605
     19 C19       -20.0531   94.3192   82.2444 C.3         1 INH       0.1369
     20 C20       -18.5641   93.8195   82.3424 C.3         1 INH      -0.0087
     21 C21       -18.3634   92.2772   82.4822 C.3         1 INH      -0.0156
     22 C22       -16.9173   91.7757   82.1966 C.3         1 INH       0.0627
     23 N23       -16.0151   92.0184   83.2385 N.pl3       1 INH      -0.2723
     24 C24       -15.7864   91.2837   84.2652 C.cat       1 INH       0.2882
     25 N25       -14.8726   91.6653   85.0700 N.pl3       1 INH      -0.2849
     26 N26       -16.3929   90.1900   84.5327 N.pl3       1 INH      -0.2849
     27 C27       -20.1811   95.6278   81.5998 C.2         1 INH       0.2292
     28 O28       -19.7656   95.7503   80.4498 O.2         1 INH      -0.3823
     29 N29       -20.9632   96.5671   82.1338 N.am        1 INH      -0.2320
     30 C30       -21.2814   97.8096   81.6486 C.ar        1 INH       0.0663
     31 C31       -22.5124   98.3807   82.0407 C.ar        1 INH      -0.0413
     32 C32       -22.8847   99.6659   81.6033 C.ar        1 INH      -0.0755
     33 C33       -22.0192  100.4048   80.7786 C.ar        1 INH      -0.0772
     34 C34       -20.7802   99.8609   80.3985 C.ar        1 INH      -0.0755
     35 C35       -20.4112   98.5755   80.8347 C.ar        1 INH      -0.0413
     36 H1        -19.0438   92.5682   78.1446 H           1 INH       0.0303
     37 H2        -18.9954   91.2293   79.3089 H           1 INH       0.0303
     38 H3        -19.4152   92.8668   79.8281 H           1 INH       0.0303
     39 H4        -20.9863   91.1548   77.8686 H           1 INH       0.1023
     40 H5        -20.9227   90.4245   80.2296 H           1 INH       0.2052
     41 H6        -22.3058   90.4048   79.3500 H           1 INH       0.2052
     42 H7        -23.1373   92.3692   80.5443 H           1 INH       0.1101
     43 H8        -23.5040   90.8232   82.6801 H           1 INH       0.0368
     44 H9        -22.7395   89.5826   81.6769 H           1 INH       0.0368
     45 H10       -25.0897   91.2511   80.6180 H           1 INH       0.0429
     46 H11       -25.3990   90.0017   81.7933 H           1 INH       0.0429
     47 H12       -24.8996   87.6129   81.2748 H           1 INH       0.0557
     48 H13       -25.2223   85.9238   79.5831 H           1 INH       0.0599
     49 H14       -25.2752   86.5431   77.2368 H           1 INH       0.0559
     50 H15       -24.9962   88.8695   76.5883 H           1 INH       0.0599
     51 H16       -24.7139   90.5736   78.2772 H           1 INH       0.0557
     52 H17       -20.9897   93.6461   80.5308 H           1 INH       0.1885
     53 H18       -20.4357   94.3995   83.2701 H           1 INH       0.0805
     54 H19       -18.0918   94.3021   83.2062 H           1 INH       0.0314
     55 H20       -18.0080   94.1486   81.4569 H           1 INH       0.0314
     56 H21       -19.0076   91.7735   81.7556 H           1 INH       0.0301
     57 H22       -18.6731   91.9583   83.4822 H           1 INH       0.0301
     58 H23       -16.5324   92.2694   81.2994 H           1 INH       0.0689
     59 H24       -16.9413   90.7050   81.9664 H           1 INH       0.0689
     60 H25       -15.4902   92.7899   83.1567 H           1 INH       0.2642
     61 H26       -14.6652   91.1520   85.8239 H           1 INH       0.2615
     62 H27       -14.3991   92.4549   84.9017 H           1 INH       0.2615
     63 H28       -17.0658   89.8692   83.9652 H           1 INH       0.2615
     64 H29       -16.1542   89.6894   85.2899 H           1 INH       0.2615
     65 H30       -21.4235   96.3115   82.9497 H           1 INH       0.2257
     66 H31       -23.1553   97.8579   82.6423 H           1 INH       0.0502
     67 H32       -23.7834  100.0628   81.8831 H           1 INH       0.0577
     68 H33       -22.2893  101.3391   80.4571 H           1 INH       0.0487
     69 H34       -20.1457  100.4022   79.8064 H           1 INH       0.0577
     70 H35       -19.4933   98.2153   80.5784 H           1 INH       0.0502
@<TRIPOS>BOND
     1     1     2   1
     2     2     6   1
     3     2     3   1
     4     3     5  ar
     5     3     4  ar
     6     6     7   1
     7     7    16   1
     8     7     8   1
     9     8     9   1
    10     9    10   1
    11    10    15  ar
    12    10    11  ar
    13    11    12  ar
    14    12    13  ar
    15    13    14  ar
    16    14    15  ar
    17    16    18  am
    18    16    17   2
    19    18    19   1
    20    19    27   1
    21    19    20   1
    22    20    21   1
    23    21    22   1
    24    22    23   1
    25    23    24  ar
    26    24    26  ar
    27    24    25  ar
    28    27    29  am
    29    27    28   2
    30    29    30   1
    31    30    35  ar
    32    30    31  ar
    33    31    32  ar
    34    32    33  ar
    35    33    34  ar
    36    34    35  ar
    37     1    36   1
    38     1    37   1
    39     1    38   1
    40     2    39   1
    41     6    40   1
    42     6    41   1
    43     7    42   1
    44     8    43   1
    45     8    44   1
    46     9    45   1
    47     9    46   1
    48    11    47   1
    49    12    48   1
    50    13    49   1
    51    14    50   1
    52    15    51   1
    53    18    52   1
    54    19    53   1
    55    20    54   1
    56    20    55   1
    57    21    56   1
    58    21    57   1
    59    22    58   1
    60    22    59   1
    61    23    60   1
    62    25    61   1
    63    25    62   1
    64    26    63   1
    65    26    64   1
    66    29    65   1
    67    31    66   1
    68    32    67   1
    69    33    68   1
    70    34    69   1
    71    35    70   1
@<TRIPOS>SUBSTRUCTURE
     1  INH      1

