@<TRIPOS>MOLECULE
1sln_ligand_011
    70    71
SMALL
GAST_HUCK
****
This file was generated by PARSER (from files_GN.cpp)

@<TRIPOS>ATOM
      1 C1        -21.1721   90.4240   81.5567 C.3         1 INH      -0.0094
      2 C2        -20.3978   91.5968   82.2159 C.3         1 INH       0.0293
      3 C3        -21.1581   92.8504   82.0349 C.2         1 INH       0.0842
      4 O4        -21.2784   93.4240   80.8182 O.co2       1 INH      -0.5643
      5 O5        -21.5692   93.5397   83.1185 O.co2       1 INH      -0.5643
      6 N6        -19.0160   91.6703   81.6584 N.4         1 INH       0.2597
      7 C7        -18.1093   92.7939   82.0644 C.3         1 INH       0.0701
      8 C8        -16.9212   92.2924   82.9374 C.3         1 INH       0.0177
      9 C9        -16.0035   93.4389   83.4597 C.3         1 INH      -0.0119
     10 C10       -15.3148   93.0825   84.7317 C.ar        1 INH      -0.0427
     11 C11       -14.1150   92.3339   84.7218 C.ar        1 INH      -0.0603
     12 C12       -13.4922   91.9626   85.9291 C.ar        1 INH      -0.0686
     13 C13       -14.0583   92.3394   87.1593 C.ar        1 INH      -0.0687
     14 C14       -15.2510   93.0809   87.1841 C.ar        1 INH      -0.0686
     15 C15       -15.8754   93.4508   85.9800 C.ar        1 INH      -0.0603
     16 C16       -17.6817   93.5040   80.8591 C.2         1 INH       0.2270
     17 O17       -17.2362   92.8537   79.9196 O.2         1 INH      -0.3907
     18 N18       -17.8343   94.8232   80.7740 N.am        1 INH      -0.2605
     19 C19       -17.7000   95.6589   79.6092 C.3         1 INH       0.1369
     20 C20       -16.3066   95.6359   78.8957 C.3         1 INH      -0.0087
     21 C21       -15.0859   96.0787   79.7374 C.3         1 INH      -0.0156
     22 C22       -15.1938   97.5322   80.2747 C.3         1 INH       0.0627
     23 N23       -13.9503   98.0655   80.6565 N.pl3       1 INH      -0.2723
     24 C24       -13.0842   98.6448   79.9055 C.cat       1 INH       0.2882
     25 N25       -13.2203   98.8287   78.6440 N.pl3       1 INH      -0.2849
     26 N26       -12.0242   99.0749   80.4573 N.pl3       1 INH      -0.2849
     27 C27       -18.8326   95.4188   78.7124 C.2         1 INH       0.2292
     28 O28       -18.6761   94.7363   77.7024 O.2         1 INH      -0.3823
     29 N29       -20.0000   95.9869   78.9933 N.am        1 INH      -0.2320
     30 C30       -21.1521   95.9637   78.2497 C.ar        1 INH       0.0663
     31 C31       -21.8414   97.1827   78.0567 C.ar        1 INH      -0.0413
     32 C32       -22.9929   97.2350   77.2498 C.ar        1 INH      -0.0755
     33 C33       -23.4923   96.0624   76.6592 C.ar        1 INH      -0.0772
     34 C34       -22.8372   94.8370   76.8715 C.ar        1 INH      -0.0755
     35 C35       -21.6726   94.7884   77.6613 C.ar        1 INH      -0.0413
     36 H1        -22.1822   90.3508   81.9680 H           1 INH       0.0303
     37 H2        -20.6586   89.4829   81.7518 H           1 INH       0.0303
     38 H3        -21.2431   90.5676   80.4775 H           1 INH       0.0303
     39 H4        -20.3144   91.3853   83.2809 H           1 INH       0.1023
     40 H5        -19.1009   91.6828   80.6450 H           1 INH       0.2052
     41 H6        -18.5564   90.7975   81.9130 H           1 INH       0.2052
     42 H7        -18.6639   93.4871   82.7075 H           1 INH       0.1101
     43 H8        -16.3216   91.5672   82.3809 H           1 INH       0.0368
     44 H9        -17.3537   91.7623   83.7924 H           1 INH       0.0368
     45 H10       -16.5999   94.3423   83.6212 H           1 INH       0.0429
     46 H11       -15.2653   93.6929   82.6945 H           1 INH       0.0429
     47 H12       -13.6879   92.0572   83.8348 H           1 INH       0.0557
     48 H13       -12.6231   91.4245   85.9114 H           1 INH       0.0599
     49 H14       -13.6019   92.0731   88.0362 H           1 INH       0.0559
     50 H15       -15.6688   93.3497   88.0796 H           1 INH       0.0599
     51 H16       -16.7496   93.9813   86.0179 H           1 INH       0.0557
     52 H17       -18.1576   95.2722   81.5764 H           1 INH       0.1885
     53 H18       -17.8140   96.6863   79.9773 H           1 INH       0.0805
     54 H19       -16.3594   96.2978   78.0215 H           1 INH       0.0314
     55 H20       -16.1137   94.6332   78.5102 H           1 INH       0.0314
     56 H21       -14.1996   96.0072   79.0980 H           1 INH       0.0301
     57 H22       -14.9421   95.3921   80.5774 H           1 INH       0.0301
     58 H23       -15.8236   97.5265   81.1646 H           1 INH       0.0689
     59 H24       -15.6811   98.1782   79.5363 H           1 INH       0.0689
     60 H25       -13.7437   98.0098   81.5591 H           1 INH       0.2642
     61 H26       -12.5574   99.2676   78.1624 H           1 INH       0.2615
     62 H27       -13.9925   98.5189   78.2057 H           1 INH       0.2615
     63 H28       -11.8889   98.9524   81.3757 H           1 INH       0.2615
     64 H29       -11.3693   99.5180   79.9451 H           1 INH       0.2615
     65 H30       -20.0063   96.5757   79.7626 H           1 INH       0.2257
     66 H31       -21.4859   98.0493   78.4703 H           1 INH       0.0502
     67 H32       -23.4552   98.1328   77.0724 H           1 INH       0.0577
     68 H33       -24.3210   96.1032   76.0593 H           1 INH       0.0487
     69 H34       -23.1957   93.9866   76.4384 H           1 INH       0.0577
     70 H35       -21.2121   93.8894   77.8077 H           1 INH       0.0502
@<TRIPOS>BOND
     1     1     2   1
     2     2     6   1
     3     2     3   1
     4     3     5  ar
     5     3     4  ar
     6     6     7   1
     7     7    16   1
     8     7     8   1
     9     8     9   1
    10     9    10   1
    11    10    15  ar
    12    10    11  ar
    13    11    12  ar
    14    12    13  ar
    15    13    14  ar
    16    14    15  ar
    17    16    18  am
    18    16    17   2
    19    18    19   1
    20    19    27   1
    21    19    20   1
    22    20    21   1
    23    21    22   1
    24    22    23   1
    25    23    24  ar
    26    24    26  ar
    27    24    25  ar
    28    27    29  am
    29    27    28   2
    30    29    30   1
    31    30    35  ar
    32    30    31  ar
    33    31    32  ar
    34    32    33  ar
    35    33    34  ar
    36    34    35  ar
    37     1    36   1
    38     1    37   1
    39     1    38   1
    40     2    39   1
    41     6    40   1
    42     6    41   1
    43     7    42   1
    44     8    43   1
    45     8    44   1
    46     9    45   1
    47     9    46   1
    48    11    47   1
    49    12    48   1
    50    13    49   1
    51    14    50   1
    52    15    51   1
    53    18    52   1
    54    19    53   1
    55    20    54   1
    56    20    55   1
    57    21    56   1
    58    21    57   1
    59    22    58   1
    60    22    59   1
    61    23    60   1
    62    25    61   1
    63    25    62   1
    64    26    63   1
    65    26    64   1
    66    29    65   1
    67    31    66   1
    68    32    67   1
    69    33    68   1
    70    34    69   1
    71    35    70   1
@<TRIPOS>SUBSTRUCTURE
     1  INH      1

