@<TRIPOS>MOLECULE
1sln_ligand_016
    70    71
SMALL
GAST_HUCK
****
This file was generated by PARSER (from files_GN.cpp)

@<TRIPOS>ATOM
      1 C1        -21.9883   93.0922   77.8437 C.3         1 INH      -0.0094
      2 C2        -21.8248   94.1383   78.9792 C.3         1 INH       0.0293
      3 C3        -23.0405   94.9675   79.1198 C.2         1 INH       0.0842
      4 O4        -23.6931   95.0371   80.3077 O.co2       1 INH      -0.5643
      5 O5        -23.5407   95.6490   78.0748 O.co2       1 INH      -0.5643
      6 N6        -20.6823   95.0686   78.7794 N.4         1 INH       0.2597
      7 C7        -19.2929   94.5530   78.5942 C.3         1 INH       0.0701
      8 C8        -18.3085   95.7602   78.6193 C.3         1 INH       0.0177
      9 C9        -16.8883   95.4537   78.0432 C.3         1 INH      -0.0119
     10 C10       -15.7671   95.9400   78.8956 C.ar        1 INH      -0.0427
     11 C11       -15.6921   97.3037   79.2684 C.ar        1 INH      -0.0603
     12 C12       -14.6389   97.7727   80.0735 C.ar        1 INH      -0.0686
     13 C13       -13.6348   96.8849   80.4999 C.ar        1 INH      -0.0687
     14 C14       -13.6919   95.5291   80.1351 C.ar        1 INH      -0.0686
     15 C15       -14.7519   95.0582   79.3402 C.ar        1 INH      -0.0603
     16 C16       -18.8873   93.5321   79.5752 C.2         1 INH       0.2270
     17 O17       -18.1810   92.6052   79.2035 O.2         1 INH      -0.3907
     18 N18       -19.2946   93.6350   80.8239 N.am        1 INH      -0.2605
     19 C19       -19.0837   92.6951   81.8920 C.3         1 INH       0.1369
     20 C20       -18.3216   93.4051   83.0571 C.3         1 INH      -0.0087
     21 C21       -16.8632   93.8679   82.7523 C.3         1 INH      -0.0156
     22 C22       -15.8299   92.7316   82.5060 C.3         1 INH       0.0627
     23 N23       -16.1786   91.5285   83.1334 N.pl3       1 INH      -0.2723
     24 C24       -15.8322   91.0739   84.2797 C.cat       1 INH       0.2882
     25 N25       -16.3872   89.9840   84.6390 N.pl3       1 INH      -0.2849
     26 N26       -14.9987   91.6250   85.0699 N.pl3       1 INH      -0.2849
     27 C27       -20.3917   92.1661   82.2667 C.2         1 INH       0.2292
     28 O28       -21.0212   92.6954   83.1773 O.2         1 INH      -0.3823
     29 N29       -20.9360   91.1947   81.5311 N.am        1 INH      -0.2320
     30 C30       -22.1684   90.6159   81.6607 C.ar        1 INH       0.0663
     31 C31       -22.8774   90.2892   80.4818 C.ar        1 INH      -0.0413
     32 C32       -24.1507   89.6939   80.5491 C.ar        1 INH      -0.0755
     33 C33       -24.7250   89.3950   81.7974 C.ar        1 INH      -0.0772
     34 C34       -24.0236   89.6892   82.9781 C.ar        1 INH      -0.0755
     35 C35       -22.7496   90.2872   82.9103 C.ar        1 INH      -0.0413
     36 H1        -22.9200   92.5393   77.9657 H           1 INH       0.0303
     37 H2        -21.1660   92.3760   77.8791 H           1 INH       0.0303
     38 H3        -21.9879   93.5770   76.8667 H           1 INH       0.0303
     39 H4        -21.6808   93.5930   79.9175 H           1 INH       0.1023
     40 H5        -20.6657   95.6940   79.5873 H           1 INH       0.2052
     41 H6        -20.8966   95.6330   77.9563 H           1 INH       0.2052
     42 H7        -19.2555   94.1177   77.5916 H           1 INH       0.1101
     43 H8        -18.2398   96.1402   79.6444 H           1 INH       0.0368
     44 H9        -18.7348   96.5720   78.0203 H           1 INH       0.0368
     45 H10       -16.7861   95.9195   77.0593 H           1 INH       0.0429
     46 H11       -16.7889   94.3799   77.8802 H           1 INH       0.0429
     47 H12       -16.4086   97.9654   78.9546 H           1 INH       0.0557
     48 H13       -14.5987   98.7580   80.3384 H           1 INH       0.0599
     49 H14       -12.8593   97.2274   81.0704 H           1 INH       0.0559
     50 H15       -12.9570   94.8868   80.4403 H           1 INH       0.0599
     51 H16       -14.7725   94.0690   79.0788 H           1 INH       0.0557
     52 H17       -19.8508   94.3983   81.0404 H           1 INH       0.1885
     53 H18       -18.4806   91.8454   81.5613 H           1 INH       0.0805
     54 H19       -18.2762   92.7252   83.9154 H           1 INH       0.0314
     55 H20       -18.8961   94.2745   83.3803 H           1 INH       0.0314
     56 H21       -16.5235   94.4600   83.6091 H           1 INH       0.0301
     57 H22       -16.8703   94.5325   81.8861 H           1 INH       0.0301
     58 H23       -14.8290   93.0646   82.8073 H           1 INH       0.0689
     59 H24       -15.7868   92.5324   81.4331 H           1 INH       0.0689
     60 H25       -16.8060   91.0030   82.6755 H           1 INH       0.2642
     61 H26       -16.1793   89.5891   85.4588 H           1 INH       0.2615
     62 H27       -17.0166   89.5808   84.0768 H           1 INH       0.2615
     63 H28       -14.5786   92.4281   84.8352 H           1 INH       0.2615
     64 H29       -14.8025   91.2263   85.8943 H           1 INH       0.2615
     65 H30       -20.4016   90.8839   80.7802 H           1 INH       0.2257
     66 H31       -22.4711   90.4888   79.5634 H           1 INH       0.0502
     67 H32       -24.6580   89.4685   79.6888 H           1 INH       0.0577
     68 H33       -25.6466   88.9509   81.8480 H           1 INH       0.0487
     69 H34       -24.4277   89.4546   83.8876 H           1 INH       0.0577
     70 H35       -22.2405   90.4496   83.7771 H           1 INH       0.0502
@<TRIPOS>BOND
     1     1     2   1
     2     2     6   1
     3     2     3   1
     4     3     5  ar
     5     3     4  ar
     6     6     7   1
     7     7    16   1
     8     7     8   1
     9     8     9   1
    10     9    10   1
    11    10    15  ar
    12    10    11  ar
    13    11    12  ar
    14    12    13  ar
    15    13    14  ar
    16    14    15  ar
    17    16    18  am
    18    16    17   2
    19    18    19   1
    20    19    27   1
    21    19    20   1
    22    20    21   1
    23    21    22   1
    24    22    23   1
    25    23    24  ar
    26    24    26  ar
    27    24    25  ar
    28    27    29  am
    29    27    28   2
    30    29    30   1
    31    30    35  ar
    32    30    31  ar
    33    31    32  ar
    34    32    33  ar
    35    33    34  ar
    36    34    35  ar
    37     1    36   1
    38     1    37   1
    39     1    38   1
    40     2    39   1
    41     6    40   1
    42     6    41   1
    43     7    42   1
    44     8    43   1
    45     8    44   1
    46     9    45   1
    47     9    46   1
    48    11    47   1
    49    12    48   1
    50    13    49   1
    51    14    50   1
    52    15    51   1
    53    18    52   1
    54    19    53   1
    55    20    54   1
    56    20    55   1
    57    21    56   1
    58    21    57   1
    59    22    58   1
    60    22    59   1
    61    23    60   1
    62    25    61   1
    63    25    62   1
    64    26    63   1
    65    26    64   1
    66    29    65   1
    67    31    66   1
    68    32    67   1
    69    33    68   1
    70    34    69   1
    71    35    70   1
@<TRIPOS>SUBSTRUCTURE
     1  INH      1

