@<TRIPOS>MOLECULE
1sln_ligand_006
    70    71
SMALL
GAST_HUCK
****
This file was generated by PARSER (from files_GN.cpp)

@<TRIPOS>ATOM
      1 C1        -13.6727   96.9750   80.4140 C.3         1 INH      -0.0094
      2 C2        -13.8956   96.0848   79.1613 C.3         1 INH       0.0293
      3 C3        -14.2003   96.8806   77.9520 C.2         1 INH       0.0842
      4 O4        -15.1002   97.8886   77.9839 O.co2       1 INH      -0.5643
      5 O5        -13.5603   96.6308   76.7854 O.co2       1 INH      -0.5643
      6 N6        -14.8378   94.9523   79.4008 N.4         1 INH       0.2597
      7 C7        -16.3134   95.1526   79.5853 C.3         1 INH       0.0701
      8 C8        -17.0634   95.2129   78.2071 C.3         1 INH       0.0177
      9 C9        -18.4556   95.9036   78.2730 C.3         1 INH      -0.0119
     10 C10       -19.2852   95.7807   77.0341 C.ar        1 INH      -0.0427
     11 C11       -18.7053   95.7163   75.7423 C.ar        1 INH      -0.0603
     12 C12       -19.5091   95.6034   74.5928 C.ar        1 INH      -0.0686
     13 C13       -20.9098   95.5892   74.7119 C.ar        1 INH      -0.0687
     14 C14       -21.5033   95.6862   75.9840 C.ar        1 INH      -0.0686
     15 C15       -20.6991   95.7729   77.1308 C.ar        1 INH      -0.0603
     16 C16       -16.8191   94.0363   80.3823 C.2         1 INH       0.2270
     17 O17       -16.6578   92.9012   79.9417 O.2         1 INH      -0.3907
     18 N18       -17.4907   94.2352   81.5139 N.am        1 INH      -0.2605
     19 C19       -18.0058   93.2121   82.3942 C.3         1 INH       0.1369
     20 C20       -17.8334   93.6051   83.9001 C.3         1 INH      -0.0087
     21 C21       -16.4979   94.3633   84.1835 C.3         1 INH      -0.0156
     22 C22       -15.8414   94.1861   85.5803 C.3         1 INH       0.0627
     23 N23       -16.3369   95.0494   86.5671 N.pl3       1 INH      -0.2723
     24 C24       -15.7720   95.3436   87.6789 C.cat       1 INH       0.2882
     25 N25       -16.3754   96.1601   88.4580 N.pl3       1 INH      -0.2849
     26 N26       -14.6402   94.8897   88.0718 N.pl3       1 INH      -0.2849
     27 C27       -19.3856   92.8963   82.0253 C.2         1 INH       0.2292
     28 O28       -20.1504   93.8031   81.7129 O.2         1 INH      -0.3823
     29 N29       -19.8086   91.6360   82.0536 N.am        1 INH      -0.2320
     30 C30       -21.0331   91.1912   81.6645 C.ar        1 INH       0.0663
     31 C31       -21.4059   91.1802   80.3012 C.ar        1 INH      -0.0413
     32 C32       -22.6644   90.6781   79.9151 C.ar        1 INH      -0.0755
     33 C33       -23.5611   90.1995   80.8868 C.ar        1 INH      -0.0772
     34 C34       -23.1981   90.2158   82.2493 C.ar        1 INH      -0.0755
     35 C35       -21.9336   90.6992   82.6327 C.ar        1 INH      -0.0413
     36 H1        -12.9006   97.7268   80.2172 H           1 INH       0.0303
     37 H2        -13.3386   96.3598   81.2523 H           1 INH       0.0303
     38 H3        -14.5926   97.4897   80.7006 H           1 INH       0.0303
     39 H4        -12.9306   95.6037   78.9770 H           1 INH       0.1023
     40 H5        -14.4854   94.4757   80.2365 H           1 INH       0.2052
     41 H6        -14.7230   94.3081   78.6135 H           1 INH       0.2052
     42 H7        -16.4754   96.0939   80.1206 H           1 INH       0.1101
     43 H8        -17.1857   94.2072   77.7890 H           1 INH       0.0368
     44 H9        -16.4446   95.7669   77.5012 H           1 INH       0.0368
     45 H10       -18.3111   96.9676   78.4899 H           1 INH       0.0429
     46 H11       -18.9943   95.4609   79.1205 H           1 INH       0.0429
     47 H12       -17.6928   95.7422   75.6213 H           1 INH       0.0557
     48 H13       -19.0785   95.5283   73.6695 H           1 INH       0.0599
     49 H14       -21.4977   95.5113   73.8794 H           1 INH       0.0559
     50 H15       -22.5210   95.6870   76.0712 H           1 INH       0.0599
     51 H16       -21.1539   95.8449   78.0434 H           1 INH       0.0557
     52 H17       -17.6336   95.1562   81.7951 H           1 INH       0.1885
     53 H18       -17.4031   92.3037   82.2674 H           1 INH       0.0805
     54 H19       -17.8571   92.6863   84.4918 H           1 INH       0.0314
     55 H20       -18.6714   94.2235   84.2240 H           1 INH       0.0314
     56 H21       -16.6703   95.4264   84.0127 H           1 INH       0.0301
     57 H22       -15.7529   94.0338   83.4522 H           1 INH       0.0301
     58 H23       -14.7732   94.3893   85.4457 H           1 INH       0.0689
     59 H24       -15.9448   93.1492   85.9081 H           1 INH       0.0689
     60 H25       -17.1573   95.4672   86.3973 H           1 INH       0.2642
     61 H26       -16.0109   96.4020   89.2869 H           1 INH       0.2615
     62 H27       -17.2009   96.5034   88.2047 H           1 INH       0.2615
     63 H28       -14.1579   94.2971   87.5355 H           1 INH       0.2615
     64 H29       -14.2868   95.1593   88.8957 H           1 INH       0.2615
     65 H30       -19.2105   90.9787   82.4328 H           1 INH       0.2257
     66 H31       -20.7610   91.5188   79.5868 H           1 INH       0.0502
     67 H32       -22.9319   90.6683   78.9275 H           1 INH       0.0577
     68 H33       -24.4778   89.8364   80.6071 H           1 INH       0.0487
     69 H34       -23.8574   89.8834   82.9563 H           1 INH       0.0577
     70 H35       -21.6776   90.7094   83.6215 H           1 INH       0.0502
@<TRIPOS>BOND
     1     1     2   1
     2     2     6   1
     3     2     3   1
     4     3     5  ar
     5     3     4  ar
     6     6     7   1
     7     7    16   1
     8     7     8   1
     9     8     9   1
    10     9    10   1
    11    10    15  ar
    12    10    11  ar
    13    11    12  ar
    14    12    13  ar
    15    13    14  ar
    16    14    15  ar
    17    16    18  am
    18    16    17   2
    19    18    19   1
    20    19    27   1
    21    19    20   1
    22    20    21   1
    23    21    22   1
    24    22    23   1
    25    23    24  ar
    26    24    26  ar
    27    24    25  ar
    28    27    29  am
    29    27    28   2
    30    29    30   1
    31    30    35  ar
    32    30    31  ar
    33    31    32  ar
    34    32    33  ar
    35    33    34  ar
    36    34    35  ar
    37     1    36   1
    38     1    37   1
    39     1    38   1
    40     2    39   1
    41     6    40   1
    42     6    41   1
    43     7    42   1
    44     8    43   1
    45     8    44   1
    46     9    45   1
    47     9    46   1
    48    11    47   1
    49    12    48   1
    50    13    49   1
    51    14    50   1
    52    15    51   1
    53    18    52   1
    54    19    53   1
    55    20    54   1
    56    20    55   1
    57    21    56   1
    58    21    57   1
    59    22    58   1
    60    22    59   1
    61    23    60   1
    62    25    61   1
    63    25    62   1
    64    26    63   1
    65    26    64   1
    66    29    65   1
    67    31    66   1
    68    32    67   1
    69    33    68   1
    70    34    69   1
    71    35    70   1
@<TRIPOS>SUBSTRUCTURE
     1  INH      1

