@<TRIPOS>MOLECULE
1sln_ligand_023
    70    71
SMALL
GAST_HUCK
****
This file was generated by PARSER (from files_GN.cpp)

@<TRIPOS>ATOM
      1 C1        -23.5296   90.1358   80.7552 C.3         1 INH      -0.0094
      2 C2        -22.5813   90.2518   81.9813 C.3         1 INH       0.0293
      3 C3        -23.1741   91.0965   83.0497 C.2         1 INH       0.0842
      4 O4        -24.2499   90.6557   83.7558 O.co2       1 INH      -0.5643
      5 O5        -22.4000   92.0235   83.6572 O.co2       1 INH      -0.5643
      6 N6        -21.1564   90.5379   81.5919 N.4         1 INH       0.2597
      7 C7        -20.6242   91.8225   81.0370 C.3         1 INH       0.0701
      8 C8        -21.6419   92.6792   80.2167 C.3         1 INH       0.0177
      9 C9        -21.0640   93.9626   79.5488 C.3         1 INH      -0.0119
     10 C10       -21.8557   94.4893   78.4009 C.ar        1 INH      -0.0427
     11 C11       -23.2748   94.5209   78.4290 C.ar        1 INH      -0.0603
     12 C12       -24.0064   94.9898   77.3222 C.ar        1 INH      -0.0686
     13 C13       -23.3370   95.4596   76.1797 C.ar        1 INH      -0.0687
     14 C14       -21.9295   95.4630   76.1471 C.ar        1 INH      -0.0686
     15 C15       -21.1992   94.9784   77.2438 C.ar        1 INH      -0.0603
     16 C16       -19.8459   92.6108   82.0006 C.2         1 INH       0.2270
     17 O17       -20.2682   92.7696   83.1589 O.2         1 INH      -0.3907
     18 N18       -18.6491   93.0950   81.6526 N.am        1 INH      -0.2605
     19 C19       -17.7633   93.9281   82.4355 C.3         1 INH       0.1369
     20 C20       -16.6750   93.0155   83.1248 C.3         1 INH      -0.0087
     21 C21       -16.7797   92.9044   84.6742 C.3         1 INH      -0.0156
     22 C22       -16.6340   94.2511   85.4395 C.3         1 INH       0.0627
     23 N23       -16.2213   94.1034   86.7726 N.pl3       1 INH      -0.2723
     24 C24       -15.0325   93.8912   87.2013 C.cat       1 INH       0.2882
     25 N25       -14.8689   93.8424   88.4660 N.pl3       1 INH      -0.2849
     26 N26       -14.0006   93.7430   86.4617 N.pl3       1 INH      -0.2849
     27 C27       -17.2080   95.0136   81.6160 C.2         1 INH       0.2292
     28 O28       -16.2124   95.5926   82.0373 O.2         1 INH      -0.3823
     29 N29       -17.8855   95.5483   80.6003 N.am        1 INH      -0.2320
     30 C30       -17.5528   96.5937   79.7681 C.ar        1 INH       0.0663
     31 C31       -16.2280   97.0193   79.4931 C.ar        1 INH      -0.0413
     32 C32       -15.9818   98.0886   78.6130 C.ar        1 INH      -0.0755
     33 C33       -17.0550   98.7433   77.9828 C.ar        1 INH      -0.0772
     34 C34       -18.3705   98.3237   78.2321 C.ar        1 INH      -0.0755
     35 C35       -18.6168   97.2522   79.1110 C.ar        1 INH      -0.0413
     36 H1        -24.4369   89.5806   81.0259 H           1 INH       0.0303
     37 H2        -23.0445   89.5918   79.9428 H           1 INH       0.0303
     38 H3        -23.8410   91.1105   80.3795 H           1 INH       0.0303
     39 H4        -22.5433   89.2408   82.4094 H           1 INH       0.1023
     40 H5        -20.9289   89.8388   80.8710 H           1 INH       0.2052
     41 H6        -20.5739   90.2719   82.3918 H           1 INH       0.2052
     42 H7        -19.9170   91.4785   80.2758 H           1 INH       0.1101
     43 H8        -22.4671   92.9917   80.8592 H           1 INH       0.0368
     44 H9        -22.0558   92.0422   79.4288 H           1 INH       0.0368
     45 H10       -20.0478   93.7422   79.2176 H           1 INH       0.0429
     46 H11       -20.9898   94.7524   80.2989 H           1 INH       0.0429
     47 H12       -23.7842   94.1879   79.2468 H           1 INH       0.0557
     48 H13       -25.0306   94.9855   77.3455 H           1 INH       0.0599
     49 H14       -23.8669   95.8012   75.3746 H           1 INH       0.0559
     50 H15       -21.4395   95.8042   75.3164 H           1 INH       0.0599
     51 H16       -20.1786   94.9957   77.1971 H           1 INH       0.0557
     52 H17       -18.3328   92.8708   80.7585 H           1 INH       0.1885
     53 H18       -18.3448   94.4290   83.2115 H           1 INH       0.0805
     54 H19       -15.6598   93.3539   82.8929 H           1 INH       0.0314
     55 H20       -16.7347   91.9976   82.7190 H           1 INH       0.0314
     56 H21       -16.0056   92.2095   85.0114 H           1 INH       0.0301
     57 H22       -17.7441   92.4594   84.9183 H           1 INH       0.0301
     58 H23       -17.6096   94.7409   85.4706 H           1 INH       0.0689
     59 H24       -15.9573   94.9273   84.9089 H           1 INH       0.0689
     60 H25       -16.8854   94.2007   87.4274 H           1 INH       0.2642
     61 H26       -14.0156   93.7047   88.8232 H           1 INH       0.2615
     62 H27       -15.6008   93.9605   89.0371 H           1 INH       0.2615
     63 H28       -14.0751   93.7768   85.5303 H           1 INH       0.2615
     64 H29       -13.1624   93.6034   86.8527 H           1 INH       0.2615
     65 H30       -18.7697   95.1759   80.4536 H           1 INH       0.2257
     66 H31       -15.4244   96.5422   79.9056 H           1 INH       0.0502
     67 H32       -15.0221   98.3865   78.4276 H           1 INH       0.0577
     68 H33       -16.8752   99.5197   77.3439 H           1 INH       0.0487
     69 H34       -19.1537   98.7946   77.7720 H           1 INH       0.0577
     70 H35       -19.5839   96.9661   79.2824 H           1 INH       0.0502
@<TRIPOS>BOND
     1     1     2   1
     2     2     6   1
     3     2     3   1
     4     3     5  ar
     5     3     4  ar
     6     6     7   1
     7     7    16   1
     8     7     8   1
     9     8     9   1
    10     9    10   1
    11    10    15  ar
    12    10    11  ar
    13    11    12  ar
    14    12    13  ar
    15    13    14  ar
    16    14    15  ar
    17    16    18  am
    18    16    17   2
    19    18    19   1
    20    19    27   1
    21    19    20   1
    22    20    21   1
    23    21    22   1
    24    22    23   1
    25    23    24  ar
    26    24    26  ar
    27    24    25  ar
    28    27    29  am
    29    27    28   2
    30    29    30   1
    31    30    35  ar
    32    30    31  ar
    33    31    32  ar
    34    32    33  ar
    35    33    34  ar
    36    34    35  ar
    37     1    36   1
    38     1    37   1
    39     1    38   1
    40     2    39   1
    41     6    40   1
    42     6    41   1
    43     7    42   1
    44     8    43   1
    45     8    44   1
    46     9    45   1
    47     9    46   1
    48    11    47   1
    49    12    48   1
    50    13    49   1
    51    14    50   1
    52    15    51   1
    53    18    52   1
    54    19    53   1
    55    20    54   1
    56    20    55   1
    57    21    56   1
    58    21    57   1
    59    22    58   1
    60    22    59   1
    61    23    60   1
    62    25    61   1
    63    25    62   1
    64    26    63   1
    65    26    64   1
    66    29    65   1
    67    31    66   1
    68    32    67   1
    69    33    68   1
    70    34    69   1
    71    35    70   1
@<TRIPOS>SUBSTRUCTURE
     1  INH      1

