@<TRIPOS>MOLECULE
1sln_ligand_053
    70    71
SMALL
GAST_HUCK
****
This file was generated by PARSER (from files_GN.cpp)

@<TRIPOS>ATOM
      1 C1        -11.8771   95.0838   86.8069 C.3         1 INH      -0.0094
      2 C2        -10.6349   95.2969   87.7118 C.3         1 INH       0.0293
      3 C3         -9.5426   94.3311   87.4359 C.2         1 INH       0.0842
      4 O4         -9.8271   93.1224   86.8857 O.co2       1 INH      -0.5643
      5 O5         -8.2545   94.7557   87.4031 O.co2       1 INH      -0.5643
      6 N6        -10.9510   95.4099   89.1574 N.4         1 INH       0.2597
      7 C7        -11.8134   94.4218   89.8484 C.3         1 INH       0.0701
      8 C8        -11.7374   94.6875   91.3904 C.3         1 INH       0.0177
      9 C9        -11.7215   96.1887   91.8378 C.3         1 INH      -0.0119
     10 C10       -11.5724   96.4110   93.3055 C.ar        1 INH      -0.0427
     11 C11       -10.2880   96.5018   93.8871 C.ar        1 INH      -0.0603
     12 C12       -10.1385   96.8246   95.2510 C.ar        1 INH      -0.0686
     13 C13       -11.2713   97.0597   96.0472 C.ar        1 INH      -0.0687
     14 C14       -12.5586   96.9580   95.4830 C.ar        1 INH      -0.0686
     15 C15       -12.7064   96.6274   94.1278 C.ar        1 INH      -0.0603
     16 C16       -13.1812   94.4542   89.3389 C.2         1 INH       0.2270
     17 O17       -13.8362   95.4423   89.6102 O.2         1 INH      -0.3907
     18 N18       -13.6670   93.4987   88.5485 N.am        1 INH      -0.2605
     19 C19       -14.9472   93.3925   87.8487 C.3         1 INH       0.1369
     20 C20       -15.9569   94.5851   88.0255 C.3         1 INH      -0.0087
     21 C21       -15.5889   95.9229   87.3033 C.3         1 INH      -0.0156
     22 C22       -16.1933   97.1860   87.9842 C.3         1 INH       0.0627
     23 N23       -15.4093   97.7247   89.0116 N.pl3       1 INH      -0.2723
     24 C24       -14.2933   98.3477   88.9018 C.cat       1 INH       0.2882
     25 N25       -13.7312   98.7624   89.9749 N.pl3       1 INH      -0.2849
     26 N26       -13.6933   98.5925   87.8018 N.pl3       1 INH      -0.2849
     27 C27       -14.7406   92.9916   86.4454 C.2         1 INH       0.2292
     28 O28       -13.6461   92.5384   86.1086 O.2         1 INH      -0.3823
     29 N29       -15.7165   93.1016   85.5346 N.am        1 INH      -0.2320
     30 C30       -15.6936   92.8448   84.2018 C.ar        1 INH       0.0663
     31 C31       -15.3826   91.5733   83.6606 C.ar        1 INH      -0.0413
     32 C32       -15.4302   91.3610   82.2728 C.ar        1 INH      -0.0755
     33 C33       -15.7785   92.4068   81.4058 C.ar        1 INH      -0.0772
     34 C34       -16.0982   93.6783   81.9269 C.ar        1 INH      -0.0755
     35 C35       -16.0698   93.8854   83.3238 C.ar        1 INH      -0.0413
     36 H1        -11.5852   95.2641   85.7676 H           1 INH       0.0303
     37 H2        -12.6874   95.7901   87.0834 H           1 INH       0.0303
     38 H3        -12.2661   94.0636   86.8978 H           1 INH       0.0303
     39 H4        -10.2473   96.2919   87.4641 H           1 INH       0.1023
     40 H5        -11.3538   96.3315   89.3073 H           1 INH       0.2052
     41 H6        -10.0490   95.3882   89.6402 H           1 INH       0.2052
     42 H7        -11.3957   93.4286   89.6806 H           1 INH       0.1101
     43 H8        -10.8174   94.2198   91.7612 H           1 INH       0.0368
     44 H9        -12.5812   94.1894   91.8764 H           1 INH       0.0368
     45 H10       -12.6339   96.6751   91.4971 H           1 INH       0.0429
     46 H11       -10.8917   96.7141   91.3527 H           1 INH       0.0429
     47 H12        -9.4497   96.3605   93.3162 H           1 INH       0.0557
     48 H13        -9.2047   96.8977   95.6576 H           1 INH       0.0599
     49 H14       -11.1646   97.3005   97.0320 H           1 INH       0.0559
     50 H15       -13.3833   97.1265   96.0619 H           1 INH       0.0599
     51 H16       -13.6518   96.5648   93.7334 H           1 INH       0.0557
     52 H17       -13.0925   92.7220   88.4398 H           1 INH       0.1885
     53 H18       -15.4351   92.5302   88.3092 H           1 INH       0.0805
     54 H19       -16.0932   94.7580   89.0891 H           1 INH       0.0314
     55 H20       -16.9382   94.2730   87.6525 H           1 INH       0.0314
     56 H21       -15.9841   95.8971   86.2784 H           1 INH       0.0301
     57 H22       -14.4916   96.0220   87.2347 H           1 INH       0.0301
     58 H23       -17.1508   96.9163   88.4257 H           1 INH       0.0689
     59 H24       -16.3919   97.9610   87.2435 H           1 INH       0.0689
     60 H25       -15.7517   97.6415   89.8799 H           1 INH       0.2642
     61 H26       -12.9159   99.2078   89.9264 H           1 INH       0.2615
     62 H27       -14.1355   98.6043   90.8021 H           1 INH       0.2615
     63 H28       -14.0591   98.3157   86.9905 H           1 INH       0.2615
     64 H29       -12.8794   99.0441   87.8072 H           1 INH       0.2615
     65 H30       -16.5362   93.5075   85.8451 H           1 INH       0.2257
     66 H31       -15.1592   90.7960   84.2829 H           1 INH       0.0502
     67 H32       -15.2121   90.4385   81.8900 H           1 INH       0.0577
     68 H33       -15.8049   92.2583   80.3976 H           1 INH       0.0487
     69 H34       -16.3487   94.4447   81.2986 H           1 INH       0.0577
     70 H35       -16.3171   94.8142   83.6864 H           1 INH       0.0502
@<TRIPOS>BOND
     1     1     2   1
     2     2     6   1
     3     2     3   1
     4     3     5  ar
     5     3     4  ar
     6     6     7   1
     7     7    16   1
     8     7     8   1
     9     8     9   1
    10     9    10   1
    11    10    15  ar
    12    10    11  ar
    13    11    12  ar
    14    12    13  ar
    15    13    14  ar
    16    14    15  ar
    17    16    18  am
    18    16    17   2
    19    18    19   1
    20    19    27   1
    21    19    20   1
    22    20    21   1
    23    21    22   1
    24    22    23   1
    25    23    24  ar
    26    24    26  ar
    27    24    25  ar
    28    27    29  am
    29    27    28   2
    30    29    30   1
    31    30    35  ar
    32    30    31  ar
    33    31    32  ar
    34    32    33  ar
    35    33    34  ar
    36    34    35  ar
    37     1    36   1
    38     1    37   1
    39     1    38   1
    40     2    39   1
    41     6    40   1
    42     6    41   1
    43     7    42   1
    44     8    43   1
    45     8    44   1
    46     9    45   1
    47     9    46   1
    48    11    47   1
    49    12    48   1
    50    13    49   1
    51    14    50   1
    52    15    51   1
    53    18    52   1
    54    19    53   1
    55    20    54   1
    56    20    55   1
    57    21    56   1
    58    21    57   1
    59    22    58   1
    60    22    59   1
    61    23    60   1
    62    25    61   1
    63    25    62   1
    64    26    63   1
    65    26    64   1
    66    29    65   1
    67    31    66   1
    68    32    67   1
    69    33    68   1
    70    34    69   1
    71    35    70   1
@<TRIPOS>SUBSTRUCTURE
     1  INH      1

