@<TRIPOS>MOLECULE
1sqa_ligand_009
    54    57
SMALL
GAST_HUCK
****
This file was generated by PARSER (from files_GN.cpp)

@<TRIPOS>ATOM
      1 N1         18.5918   20.4481   35.1758 N.4         1 UI1       0.2289
      2 C2         18.2855   19.7293   33.9337 C.3         1 UI1      -0.0082
      3 C3         19.1685   18.5457   33.7756 C.ar        1 UI1      -0.0133
      4 C4         20.5201   18.7160   33.4135 C.ar        1 UI1      -0.0682
      5 C5         21.3620   17.6047   33.2451 C.ar        1 UI1      -0.0471
      6 C6         20.8825   16.2935   33.4658 C.ar        1 UI1       0.0594
      7 N7         21.6598   15.1791   33.3404 N.am        1 UI1      -0.2371
      8 C8         22.9386   15.0500   33.6910 C.2         1 UI1       0.2269
      9 O9         23.5123   15.9600   34.2940 O.2         1 UI1      -0.3740
     10 C10        23.6361   13.8728   33.4707 C.ar        1 UI1       0.0420
     11 C11        25.0281   13.9113   33.2289 C.ar        1 UI1      -0.0212
     12 C12        25.7753   12.7387   33.0013 C.ar        1 UI1       0.0814
     13 N13        27.1085   12.8581   32.7534 N.pl3       1 UI1      -0.2366
     14 C14        27.6355   13.3758   31.6230 C.ar        1 UI1       0.2162
     15 N15        28.9874   13.3477   31.4874 N.ar        1 UI1      -0.2483
     16 C16        29.6042   13.8059   30.3705 C.ar        1 UI1       0.0160
     17 C17        28.8381   14.3192   29.3076 C.ar        1 UI1      -0.0217
     18 C18        27.4422   14.3467   29.4606 C.ar        1 UI1       0.0160
     19 N19        26.8816   13.8771   30.6031 N.ar        1 UI1      -0.2483
     20 C20        25.1366   11.4735   33.0586 C.ar        1 UI1       0.0152
     21 C21        25.8462   10.2663   32.8437 C.ar        1 UI1      -0.0470
     22 C22        25.2218    8.9931   32.8911 C.ar        1 UI1       0.0254
     23 C23        23.8333    8.9729   33.1884 C.ar        1 UI1      -0.0575
     24 C24        23.1036   10.1553   33.3843 C.ar        1 UI1      -0.0567
     25 C25        23.7369   11.4128   33.3097 C.ar        1 UI1      -0.0208
     26 C26        23.0009   12.6050   33.4856 C.ar        1 UI1      -0.0476
     27 C27        25.9416    7.8087   32.6420 C.cat       1 UI1       0.2346
     28 N28        27.2148    7.7823   32.5170 N.pl3       1 UI1      -0.2724
     29 N29        25.3788    6.6701   32.5131 N.pl3       1 UI1      -0.2724
     30 C30        19.5244   16.1159   33.8048 C.ar        1 UI1      -0.0471
     31 C31        18.6787   17.2286   33.9705 C.ar        1 UI1      -0.0682
     32 H1         18.0087   21.2843   35.2256 H           1 UI1       0.2005
     33 H2         19.5790   20.7136   35.2111 H           1 UI1       0.2005
     34 H3         18.3637   19.8466   35.9695 H           1 UI1       0.2005
     35 H4         18.4094   20.4153   33.0896 H           1 UI1       0.0950
     36 H5         17.2341   19.4359   33.9677 H           1 UI1       0.0950
     37 H6         20.9008   19.6537   33.2487 H           1 UI1       0.0522
     38 H7         22.3282   17.7541   32.9411 H           1 UI1       0.0488
     39 H8         21.2279   14.3836   32.9800 H           1 UI1       0.2231
     40 H9         25.5123   14.8142   33.2042 H           1 UI1       0.0523
     41 H10        27.7187   12.4186   33.3682 H           1 UI1       0.2211
     42 H11        30.6232   13.7692   30.3047 H           1 UI1       0.0903
     43 H12        29.2847   14.6590   28.4538 H           1 UI1       0.0673
     44 H13        26.8471   14.7115   28.7158 H           1 UI1       0.0903
     45 H14        26.8423   10.3220   32.6274 H           1 UI1       0.0632
     46 H15        23.3299    8.0859   33.2642 H           1 UI1       0.0617
     47 H16        22.0991   10.0903   33.5822 H           1 UI1       0.0609
     48 H17        21.9930   12.5491   33.6628 H           1 UI1       0.0557
     49 H18        27.6522    6.9730   32.3465 H           1 UI1       0.3181
     50 H19        27.7190    8.5640   32.5945 H           1 UI1       0.3181
     51 H20        24.4507    6.5872   32.5774 H           1 UI1       0.3181
     52 H21        25.8943    5.9071   32.3430 H           1 UI1       0.3181
     53 H22        19.1483   15.1772   33.9522 H           1 UI1       0.0488
     54 H23        17.7063   17.0753   34.2341 H           1 UI1       0.0522
@<TRIPOS>BOND
     1     1     2   1
     2     2     3   1
     3     3     4  ar
     4     3    31  ar
     5     4     5  ar
     6     5     6  ar
     7     6     7   1
     8     6    30  ar
     9     7     8  am
    10     8     9   2
    11     8    10   1
    12    10    11  ar
    13    10    26  ar
    14    11    12  ar
    15    12    13   1
    16    12    20  ar
    17    13    14   1
    18    14    15  ar
    19    14    19  ar
    20    15    16  ar
    21    16    17  ar
    22    17    18  ar
    23    18    19  ar
    24    20    21  ar
    25    20    25  ar
    26    21    22  ar
    27    22    23  ar
    28    22    27   1
    29    23    24  ar
    30    24    25  ar
    31    25    26  ar
    32    27    28  ar
    33    27    29  ar
    34    30    31  ar
    35     1    32   1
    36     1    33   1
    37     1    34   1
    38     2    35   1
    39     2    36   1
    40     4    37   1
    41     5    38   1
    42     7    39   1
    43    11    40   1
    44    13    41   1
    45    16    42   1
    46    17    43   1
    47    18    44   1
    48    21    45   1
    49    23    46   1
    50    24    47   1
    51    26    48   1
    52    28    49   1
    53    28    50   1
    54    29    51   1
    55    29    52   1
    56    30    53   1
    57    31    54   1
@<TRIPOS>SUBSTRUCTURE
     1  UI1      2

