@<TRIPOS>MOLECULE
1sqa_ligand_000
    54    57
SMALL
GAST_HUCK
****
This file was generated by PARSER (from files_GN.cpp)

@<TRIPOS>ATOM
      1 N1         25.9490    7.5643   29.9760 N.4         1 UI1       0.2289
      2 C2         26.6818    8.3586   30.9708 C.3         1 UI1      -0.0082
      3 C3         26.0086    9.6509   31.2681 C.ar        1 UI1      -0.0133
      4 C4         24.6119    9.7062   31.4344 C.ar        1 UI1      -0.0682
      5 C5         23.9727   10.9003   31.7968 C.ar        1 UI1      -0.0471
      6 C6         24.7194   12.0667   32.0857 C.ar        1 UI1       0.0594
      7 N7         24.1255   13.2275   32.5283 N.am        1 UI1      -0.2371
      8 C8         23.2510   13.3540   33.5239 C.2         1 UI1       0.2269
      9 O9         22.9509   12.4017   34.2462 O.2         1 UI1      -0.3740
     10 C10        22.5772   14.5492   33.7323 C.ar        1 UI1       0.0420
     11 C11        23.2517   15.7786   33.8891 C.ar        1 UI1      -0.0212
     12 C12        22.5491   16.9822   34.1119 C.ar        1 UI1       0.0814
     13 N13        23.2523   18.1205   34.3525 N.pl3       1 UI1      -0.2366
     14 C14        23.9571   18.8117   33.4344 C.ar        1 UI1       0.2162
     15 N15        24.5004   19.9958   33.8205 N.ar        1 UI1      -0.2483
     16 C16        25.1975   20.7832   32.9620 C.ar        1 UI1       0.0160
     17 C17        25.3632   20.3813   31.6267 C.ar        1 UI1      -0.0217
     18 C18        24.7944   19.1541   31.2358 C.ar        1 UI1       0.0160
     19 N19        24.1116   18.4099   32.1389 N.ar        1 UI1      -0.2483
     20 C20        21.1239   16.9846   34.1486 C.ar        1 UI1       0.0152
     21 C21        20.3679   18.1718   34.3177 C.ar        1 UI1      -0.0470
     22 C22        18.9477   18.1867   34.2923 C.ar        1 UI1       0.0254
     23 C23        18.3041   16.9330   34.1117 C.ar        1 UI1      -0.0575
     24 C24        19.0278   15.7418   33.9468 C.ar        1 UI1      -0.0567
     25 C25        20.4374   15.7532   33.9616 C.ar        1 UI1      -0.0208
     26 C26        21.1590   14.5559   33.7770 C.ar        1 UI1      -0.0476
     27 C27        18.2111   19.3739   34.4322 C.cat       1 UI1       0.2346
     28 N28        18.7290   20.4944   34.7959 N.pl3       1 UI1      -0.2724
     29 N29        16.9495   19.4384   34.2130 N.pl3       1 UI1      -0.2724
     30 C30        26.1153   12.0354   31.8672 C.ar        1 UI1      -0.0471
     31 C31        26.7589   10.8404   31.4726 C.ar        1 UI1      -0.0682
     32 H1         26.4825    6.7213   29.7524 H           1 UI1       0.2005
     33 H2         25.8133    8.1202   29.1285 H           1 UI1       0.2005
     34 H3         25.0377    7.2924   30.3576 H           1 UI1       0.2005
     35 H4         27.6939    8.5129   30.5955 H           1 UI1       0.0950
     36 H5         26.7479    7.7718   31.8892 H           1 UI1       0.0950
     37 H6         24.0369    8.8772   31.2717 H           1 UI1       0.0522
     38 H7         22.9562   10.9116   31.8785 H           1 UI1       0.0488
     39 H8         24.3980   14.0485   32.0829 H           1 UI1       0.2231
     40 H9         24.2798   15.7871   33.8736 H           1 UI1       0.0523
     41 H10        23.1076   18.5579   35.2107 H           1 UI1       0.2211
     42 H11        25.5832   21.6696   33.2833 H           1 UI1       0.0903
     43 H12        25.8765   20.9636   30.9577 H           1 UI1       0.0673
     44 H13        24.8861   18.8270   30.2712 H           1 UI1       0.0903
     45 H14        20.8660   19.0557   34.4506 H           1 UI1       0.0632
     46 H15        17.2854   16.8638   34.1119 H           1 UI1       0.0617
     47 H16        18.5158   14.8644   33.8384 H           1 UI1       0.0609
     48 H17        20.6475   13.6764   33.6504 H           1 UI1       0.0557
     49 H18        18.1727   21.2364   34.9103 H           1 UI1       0.3181
     50 H19        19.6361   20.5617   35.0015 H           1 UI1       0.3181
     51 H20        16.4818   18.6780   33.9416 H           1 UI1       0.3181
     52 H21        16.4908   20.2465   34.3255 H           1 UI1       0.3181
     53 H22        26.6904   12.8635   32.0483 H           1 UI1       0.0488
     54 H23        27.7742   10.8351   31.3417 H           1 UI1       0.0522
@<TRIPOS>BOND
     1     1     2   1
     2     2     3   1
     3     3     4  ar
     4     3    31  ar
     5     4     5  ar
     6     5     6  ar
     7     6     7   1
     8     6    30  ar
     9     7     8  am
    10     8     9   2
    11     8    10   1
    12    10    11  ar
    13    10    26  ar
    14    11    12  ar
    15    12    13   1
    16    12    20  ar
    17    13    14   1
    18    14    15  ar
    19    14    19  ar
    20    15    16  ar
    21    16    17  ar
    22    17    18  ar
    23    18    19  ar
    24    20    21  ar
    25    20    25  ar
    26    21    22  ar
    27    22    23  ar
    28    22    27   1
    29    23    24  ar
    30    24    25  ar
    31    25    26  ar
    32    27    28  ar
    33    27    29  ar
    34    30    31  ar
    35     1    32   1
    36     1    33   1
    37     1    34   1
    38     2    35   1
    39     2    36   1
    40     4    37   1
    41     5    38   1
    42     7    39   1
    43    11    40   1
    44    13    41   1
    45    16    42   1
    46    17    43   1
    47    18    44   1
    48    21    45   1
    49    23    46   1
    50    24    47   1
    51    26    48   1
    52    28    49   1
    53    28    50   1
    54    29    51   1
    55    29    52   1
    56    30    53   1
    57    31    54   1
@<TRIPOS>SUBSTRUCTURE
     1  UI1      2

