@<TRIPOS>MOLECULE
1sqa_ligand_012
    54    57
SMALL
GAST_HUCK
****
This file was generated by PARSER (from files_GN.cpp)

@<TRIPOS>ATOM
      1 N1         29.8473   11.1184   28.6712 N.4         1 UI1       0.2289
      2 C2         28.4466   10.7875   28.3916 C.3         1 UI1      -0.0082
      3 C3         27.5212   11.7766   29.0011 C.ar        1 UI1      -0.0133
      4 C4         27.5335   13.1231   28.5706 C.ar        1 UI1      -0.0682
      5 C5         26.6325   14.0624   29.1084 C.ar        1 UI1      -0.0471
      6 C6         25.6750   13.6741   30.0685 C.ar        1 UI1       0.0594
      7 N7         24.8189   14.6284   30.5573 N.am        1 UI1      -0.2371
      8 C8         23.5352   14.4869   30.8810 C.2         1 UI1       0.2269
      9 O9         22.9642   13.4329   30.6324 O.2         1 UI1      -0.3740
     10 C10        22.8021   15.5321   31.4523 C.ar        1 UI1       0.0420
     11 C11        23.4359   16.5376   32.2141 C.ar        1 UI1      -0.0212
     12 C12        22.7170   17.6028   32.8079 C.ar        1 UI1       0.0814
     13 N13        23.4080   18.5680   33.4882 N.pl3       1 UI1      -0.2366
     14 C14        24.4813   19.2368   33.0023 C.ar        1 UI1       0.2162
     15 N15        25.1695   20.0767   33.8191 N.ar        1 UI1      -0.2483
     16 C16        26.2518   20.7693   33.3769 C.ar        1 UI1       0.0160
     17 C17        26.6689   20.6510   32.0405 C.ar        1 UI1      -0.0217
     18 C18        25.9460   19.7861   31.2051 C.ar        1 UI1       0.0160
     19 N19        24.8860   19.1099   31.7067 N.ar        1 UI1      -0.2483
     20 C20        21.3015   17.6409   32.7003 C.ar        1 UI1       0.0152
     21 C21        20.5131   18.6571   33.3013 C.ar        1 UI1      -0.0470
     22 C22        19.0971   18.6931   33.1836 C.ar        1 UI1       0.0254
     23 C23        18.4909   17.6730   32.4062 C.ar        1 UI1      -0.0575
     24 C24        19.2476   16.6669   31.7880 C.ar        1 UI1      -0.0567
     25 C25        20.6479   16.6355   31.9353 C.ar        1 UI1      -0.0208
     26 C26        21.3963   15.6095   31.3191 C.ar        1 UI1      -0.0476
     27 C27        18.3186   19.6866   33.8097 C.cat       1 UI1       0.2346
     28 N28        18.8123   20.7308   34.3580 N.pl3       1 UI1      -0.2724
     29 N29        17.0442   19.6078   33.8930 N.pl3       1 UI1      -0.2724
     30 C30        25.6819   12.3322   30.5192 C.ar        1 UI1      -0.0471
     31 C31        26.5904   11.3958   29.9921 C.ar        1 UI1      -0.0682
     32 H1         30.4427   10.3781   28.2930 H           1 UI1       0.2005
     33 H2         29.9932   11.1875   29.6811 H           1 UI1       0.2005
     34 H3         30.0861   12.0088   28.2296 H           1 UI1       0.2005
     35 H4         28.2691    9.7726   28.7562 H           1 UI1       0.0950
     36 H5         28.2936   10.7817   27.3109 H           1 UI1       0.0950
     37 H6         28.1940   13.4241   27.8502 H           1 UI1       0.0522
     38 H7         26.6633   15.0298   28.7748 H           1 UI1       0.0488
     39 H8         25.1724   15.5298   30.6167 H           1 UI1       0.2231
     40 H9         24.4486   16.4918   32.3608 H           1 UI1       0.0523
     41 H10        23.0697   18.8339   34.3581 H           1 UI1       0.2211
     42 H11        26.7626   21.3755   34.0167 H           1 UI1       0.0903
     43 H12        27.4719   21.1752   31.6879 H           1 UI1       0.0673
     44 H13        26.2086   19.6621   30.2263 H           1 UI1       0.0903
     45 H14        20.9830   19.3757   33.8558 H           1 UI1       0.0632
     46 H15        17.4782   17.6455   32.2688 H           1 UI1       0.0617
     47 H16        18.7650   15.9539   31.2334 H           1 UI1       0.0609
     48 H17        20.9052   14.9138   30.7519 H           1 UI1       0.0557
     49 H18        18.2399   21.3473   34.7738 H           1 UI1       0.3181
     50 H19        19.7356   20.8788   34.3815 H           1 UI1       0.3181
     51 H20        16.5909   18.8629   33.5577 H           1 UI1       0.3181
     52 H21        16.5531   20.2833   34.3182 H           1 UI1       0.3181
     53 H22        25.0345   12.0300   31.2502 H           1 UI1       0.0488
     54 H23        26.5659   10.4319   30.3354 H           1 UI1       0.0522
@<TRIPOS>BOND
     1     1     2   1
     2     2     3   1
     3     3     4  ar
     4     3    31  ar
     5     4     5  ar
     6     5     6  ar
     7     6     7   1
     8     6    30  ar
     9     7     8  am
    10     8     9   2
    11     8    10   1
    12    10    11  ar
    13    10    26  ar
    14    11    12  ar
    15    12    13   1
    16    12    20  ar
    17    13    14   1
    18    14    15  ar
    19    14    19  ar
    20    15    16  ar
    21    16    17  ar
    22    17    18  ar
    23    18    19  ar
    24    20    21  ar
    25    20    25  ar
    26    21    22  ar
    27    22    23  ar
    28    22    27   1
    29    23    24  ar
    30    24    25  ar
    31    25    26  ar
    32    27    28  ar
    33    27    29  ar
    34    30    31  ar
    35     1    32   1
    36     1    33   1
    37     1    34   1
    38     2    35   1
    39     2    36   1
    40     4    37   1
    41     5    38   1
    42     7    39   1
    43    11    40   1
    44    13    41   1
    45    16    42   1
    46    17    43   1
    47    18    44   1
    48    21    45   1
    49    23    46   1
    50    24    47   1
    51    26    48   1
    52    28    49   1
    53    28    50   1
    54    29    51   1
    55    29    52   1
    56    30    53   1
    57    31    54   1
@<TRIPOS>SUBSTRUCTURE
     1  UI1      2

