@<TRIPOS>MOLECULE
1sqa_ligand_021
    54    57
SMALL
GAST_HUCK
****
This file was generated by PARSER (from files_GN.cpp)

@<TRIPOS>ATOM
      1 N1         19.4690   15.5345   31.3051 N.4         1 UI1       0.2289
      2 C2         19.1168   16.4985   32.3560 C.3         1 UI1      -0.0082
      3 C3         20.3030   16.9701   33.1154 C.ar        1 UI1      -0.0133
      4 C4         20.5943   18.3501   33.2233 C.ar        1 UI1      -0.0682
      5 C5         21.7126   18.7920   33.9511 C.ar        1 UI1      -0.0471
      6 C6         22.5587   17.8668   34.5958 C.ar        1 UI1       0.0594
      7 N7         23.6722   18.3442   35.2168 N.am        1 UI1      -0.2371
      8 C8         24.0554   18.1639   36.4780 C.2         1 UI1       0.2269
      9 O9         23.3462   17.4910   37.2195 O.2         1 UI1      -0.3740
     10 C10        25.2059   18.8014   36.9782 C.ar        1 UI1       0.0420
     11 C11        25.5250   18.7860   38.3603 C.ar        1 UI1      -0.0212
     12 C12        26.6616   19.4543   38.8779 C.ar        1 UI1       0.0814
     13 N13        26.8905   19.4059   40.2216 N.pl3       1 UI1      -0.2366
     14 C14        27.3098   18.3122   40.8965 C.ar        1 UI1       0.2162
     15 N15        27.3952   18.3842   42.2494 N.ar        1 UI1      -0.2483
     16 C16        27.7811   17.3239   43.0041 C.ar        1 UI1       0.0160
     17 C17        28.1342   16.1158   42.3787 C.ar        1 UI1      -0.0217
     18 C18        28.0749   16.0628   40.9754 C.ar        1 UI1       0.0160
     19 N19        27.6541   17.1489   40.2794 N.ar        1 UI1      -0.2483
     20 C20        27.5138   20.1840   38.0085 C.ar        1 UI1       0.0152
     21 C21        28.6562   20.8940   38.4653 C.ar        1 UI1      -0.0470
     22 C22        29.5186   21.6027   37.5810 C.ar        1 UI1       0.0254
     23 C23        29.2039   21.5492   36.1996 C.ar        1 UI1      -0.0575
     24 C24        28.0871   20.8472   35.7249 C.ar        1 UI1      -0.0567
     25 C25        27.2303   20.1758   36.6175 C.ar        1 UI1      -0.0208
     26 C26        26.1008   19.4918   36.1227 C.ar        1 UI1      -0.0476
     27 C27        30.6416   22.3305   38.0343 C.cat       1 UI1       0.2346
     28 N28        31.0273   22.3265   39.2503 N.pl3       1 UI1      -0.2724
     29 N29        31.3638   23.0574   37.2669 N.pl3       1 UI1      -0.2724
     30 C30        22.2764   16.4877   34.4886 C.ar        1 UI1      -0.0471
     31 C31        21.1585   16.0446   33.7574 C.ar        1 UI1      -0.0682
     32 H1         18.6264   15.2860   30.7822 H           1 UI1       0.2005
     33 H2         19.8598   14.6868   31.7187 H           1 UI1       0.2005
     34 H3         20.1517   15.9447   30.6642 H           1 UI1       0.2005
     35 H4         18.4156   16.0224   33.0455 H           1 UI1       0.0950
     36 H5         18.6006   17.3301   31.8709 H           1 UI1       0.0950
     37 H6         19.9883   19.0454   32.7831 H           1 UI1       0.0522
     38 H7         21.8935   19.7960   34.0240 H           1 UI1       0.0488
     39 H8         24.1763   18.9917   34.7027 H           1 UI1       0.2231
     40 H9         24.9008   18.3059   39.0160 H           1 UI1       0.0523
     41 H10        26.7778   20.2316   40.7242 H           1 UI1       0.2211
     42 H11        27.7975   17.4038   44.0226 H           1 UI1       0.0903
     43 H12        28.4188   15.3004   42.9273 H           1 UI1       0.0673
     44 H13        28.3340   15.2094   40.4788 H           1 UI1       0.0903
     45 H14        28.8595   20.8937   39.4674 H           1 UI1       0.0632
     46 H15        29.7923   22.0131   35.5055 H           1 UI1       0.0617
     47 H16        27.9036   20.8353   34.7175 H           1 UI1       0.0609
     48 H17        25.9366   19.5087   35.1122 H           1 UI1       0.0557
     49 H18        31.7785   22.8246   39.5050 H           1 UI1       0.3181
     50 H19        30.5727   21.8278   39.8957 H           1 UI1       0.3181
     51 H20        31.1696   23.1367   36.3579 H           1 UI1       0.3181
     52 H21        32.0984   23.5190   37.6156 H           1 UI1       0.3181
     53 H22        22.8979   15.7986   34.9212 H           1 UI1       0.0488
     54 H23        20.9745   15.0398   33.6960 H           1 UI1       0.0522
@<TRIPOS>BOND
     1     1     2   1
     2     2     3   1
     3     3     4  ar
     4     3    31  ar
     5     4     5  ar
     6     5     6  ar
     7     6     7   1
     8     6    30  ar
     9     7     8  am
    10     8     9   2
    11     8    10   1
    12    10    11  ar
    13    10    26  ar
    14    11    12  ar
    15    12    13   1
    16    12    20  ar
    17    13    14   1
    18    14    15  ar
    19    14    19  ar
    20    15    16  ar
    21    16    17  ar
    22    17    18  ar
    23    18    19  ar
    24    20    21  ar
    25    20    25  ar
    26    21    22  ar
    27    22    23  ar
    28    22    27   1
    29    23    24  ar
    30    24    25  ar
    31    25    26  ar
    32    27    28  ar
    33    27    29  ar
    34    30    31  ar
    35     1    32   1
    36     1    33   1
    37     1    34   1
    38     2    35   1
    39     2    36   1
    40     4    37   1
    41     5    38   1
    42     7    39   1
    43    11    40   1
    44    13    41   1
    45    16    42   1
    46    17    43   1
    47    18    44   1
    48    21    45   1
    49    23    46   1
    50    24    47   1
    51    26    48   1
    52    28    49   1
    53    28    50   1
    54    29    51   1
    55    29    52   1
    56    30    53   1
    57    31    54   1
@<TRIPOS>SUBSTRUCTURE
     1  UI1      2

