@<TRIPOS>MOLECULE
1sqa_ligand_003
    54    57
SMALL
GAST_HUCK
****
This file was generated by PARSER (from files_GN.cpp)

@<TRIPOS>ATOM
      1 N1         18.6660   20.3773   34.8909 N.4         1 UI1       0.2289
      2 C2         18.5865   20.0109   33.4689 C.3         1 UI1      -0.0082
      3 C3         19.6385   19.0309   33.0945 C.ar        1 UI1      -0.0133
      4 C4         20.9852   19.2722   33.4454 C.ar        1 UI1      -0.0682
      5 C5         22.0001   18.3668   33.0834 C.ar        1 UI1      -0.0471
      6 C6         21.6939   17.1939   32.3526 C.ar        1 UI1       0.0594
      7 N7         22.6369   16.2654   31.9949 N.am        1 UI1      -0.2371
      8 C8         23.8308   16.4831   31.4522 C.2         1 UI1       0.2269
      9 O9         24.1605   17.6220   31.1332 O.2         1 UI1      -0.3740
     10 C10        24.7007   15.4238   31.1739 C.ar        1 UI1       0.0420
     11 C11        24.7734   14.2965   32.0215 C.ar        1 UI1      -0.0212
     12 C12        25.6803   13.2400   31.7846 C.ar        1 UI1       0.0814
     13 N13        25.8184   12.2343   32.7023 N.pl3       1 UI1      -0.2366
     14 C14        24.8489   11.4766   33.2692 C.ar        1 UI1       0.2162
     15 N15        25.2424   10.5467   34.1769 N.ar        1 UI1      -0.2483
     16 C16        24.3579    9.7112   34.7810 C.ar        1 UI1       0.0160
     17 C17        22.9923    9.7912   34.4579 C.ar        1 UI1      -0.0217
     18 C18        22.5976   10.7527   33.5131 C.ar        1 UI1       0.0160
     19 N19        23.5266   11.5649   32.9485 N.ar        1 UI1      -0.2483
     20 C20        26.5338   13.2922   30.6472 C.ar        1 UI1       0.0152
     21 C21        27.4292   12.2450   30.3169 C.ar        1 UI1      -0.0470
     22 C22        28.2659   12.2769   29.1680 C.ar        1 UI1       0.0254
     23 C23        28.1942   13.4373   28.3553 C.ar        1 UI1      -0.0575
     24 C24        27.3218   14.4951   28.6607 C.ar        1 UI1      -0.0567
     25 C25        26.4772   14.4240   29.7855 C.ar        1 UI1      -0.0208
     26 C26        25.5746   15.4726   30.0612 C.ar        1 UI1      -0.0476
     27 C27        29.1064   11.1960   28.8329 C.cat       1 UI1       0.2346
     28 N28        29.1862   10.1223   29.5222 N.pl3       1 UI1      -0.2724
     29 N29        29.8456   11.1879   27.7901 N.pl3       1 UI1      -0.2724
     30 C30        20.3466   16.9410   32.0240 C.ar        1 UI1      -0.0471
     31 C31        19.3320   17.8506   32.3757 C.ar        1 UI1      -0.0682
     32 H1         17.9403   21.0682   35.0948 H           1 UI1       0.2005
     33 H2         19.5851   20.7813   35.1023 H           1 UI1       0.2005
     34 H3         18.5086   19.5550   35.4801 H           1 UI1       0.2005
     35 H4         18.7066   20.9154   32.8709 H           1 UI1       0.0950
     36 H5         17.5876   19.6156   33.2747 H           1 UI1       0.0950
     37 H6         21.2357   20.1167   33.9683 H           1 UI1       0.0522
     38 H7         22.9605   18.5678   33.3767 H           1 UI1       0.0488
     39 H8         22.3625   15.3357   32.0792 H           1 UI1       0.2231
     40 H9         24.2029   14.2737   32.8737 H           1 UI1       0.0523
     41 H10        26.7273   11.9923   32.9353 H           1 UI1       0.2211
     42 H11        24.6912    9.0261   35.4577 H           1 UI1       0.0903
     43 H12        22.3099    9.1688   34.8924 H           1 UI1       0.0673
     44 H13        21.6179   10.8525   33.2475 H           1 UI1       0.0903
     45 H14        27.4609   11.4209   30.9194 H           1 UI1       0.0632
     46 H15        28.7766   13.5342   27.5206 H           1 UI1       0.0617
     47 H16        27.3027   15.3088   28.0413 H           1 UI1       0.0609
     48 H17        25.5387   16.2784   29.4316 H           1 UI1       0.0557
     49 H18        29.7478    9.4317   29.2336 H           1 UI1       0.3181
     50 H19        28.6837   10.0082   30.2990 H           1 UI1       0.3181
     51 H20        29.8591   11.9129   27.2048 H           1 UI1       0.3181
     52 H21        30.3754   10.4398   27.6021 H           1 UI1       0.3181
     53 H22        20.0964   16.0945   31.5023 H           1 UI1       0.0488
     54 H23        18.3657   17.6451   32.1078 H           1 UI1       0.0522
@<TRIPOS>BOND
     1     1     2   1
     2     2     3   1
     3     3     4  ar
     4     3    31  ar
     5     4     5  ar
     6     5     6  ar
     7     6     7   1
     8     6    30  ar
     9     7     8  am
    10     8     9   2
    11     8    10   1
    12    10    11  ar
    13    10    26  ar
    14    11    12  ar
    15    12    13   1
    16    12    20  ar
    17    13    14   1
    18    14    15  ar
    19    14    19  ar
    20    15    16  ar
    21    16    17  ar
    22    17    18  ar
    23    18    19  ar
    24    20    21  ar
    25    20    25  ar
    26    21    22  ar
    27    22    23  ar
    28    22    27   1
    29    23    24  ar
    30    24    25  ar
    31    25    26  ar
    32    27    28  ar
    33    27    29  ar
    34    30    31  ar
    35     1    32   1
    36     1    33   1
    37     1    34   1
    38     2    35   1
    39     2    36   1
    40     4    37   1
    41     5    38   1
    42     7    39   1
    43    11    40   1
    44    13    41   1
    45    16    42   1
    46    17    43   1
    47    18    44   1
    48    21    45   1
    49    23    46   1
    50    24    47   1
    51    26    48   1
    52    28    49   1
    53    28    50   1
    54    29    51   1
    55    29    52   1
    56    30    53   1
    57    31    54   1
@<TRIPOS>SUBSTRUCTURE
     1  UI1      2

