@<TRIPOS>MOLECULE
1sqa_ligand_020
    54    57
SMALL
GAST_HUCK
****
This file was generated by PARSER (from files_GN.cpp)

@<TRIPOS>ATOM
      1 N1         16.5335   19.8250   33.6653 N.4         1 UI1       0.2289
      2 C2         17.8319   20.4655   33.4156 C.3         1 UI1      -0.0082
      3 C3         18.9083   19.4881   33.0968 C.ar        1 UI1      -0.0133
      4 C4         18.6511   18.3205   32.3325 C.ar        1 UI1      -0.0682
      5 C5         19.6803   17.4010   32.0613 C.ar        1 UI1      -0.0471
      6 C6         20.9929   17.6548   32.5031 C.ar        1 UI1       0.0594
      7 N7         21.9533   16.7258   32.2547 N.am        1 UI1      -0.2371
      8 C8         22.9590   16.8486   31.3990 C.2         1 UI1       0.2269
      9 O9         23.1000   17.9019   30.7792 O.2         1 UI1      -0.3740
     10 C10        23.8603   15.7891   31.2028 C.ar        1 UI1       0.0420
     11 C11        25.1504   16.0294   30.6767 C.ar        1 UI1      -0.0212
     12 C12        26.0859   14.9956   30.4306 C.ar        1 UI1       0.0814
     13 N13        27.3328   15.2847   29.9146 N.pl3       1 UI1      -0.2366
     14 C14        27.7251   16.2844   29.0836 C.ar        1 UI1       0.2162
     15 N15        29.0467   16.3456   28.7715 N.ar        1 UI1      -0.2483
     16 C16        29.5691   17.3046   27.9699 C.ar        1 UI1       0.0160
     17 C17        28.7185   18.2779   27.4189 C.ar        1 UI1      -0.0217
     18 C18        27.3475   18.2006   27.7273 C.ar        1 UI1       0.0160
     19 N19        26.8963   17.2227   28.5466 N.ar        1 UI1      -0.2483
     20 C20        25.7469   13.6631   30.8100 C.ar        1 UI1       0.0152
     21 C21        26.6340   12.5605   30.6543 C.ar        1 UI1      -0.0470
     22 C22        26.3020   11.2400   31.0518 C.ar        1 UI1       0.0254
     23 C23        25.0126   11.0312   31.6031 C.ar        1 UI1      -0.0575
     24 C24        24.1119   12.0959   31.7603 C.ar        1 UI1      -0.0567
     25 C25        24.4629   13.4026   31.3727 C.ar        1 UI1      -0.0208
     26 C26        23.5388   14.4531   31.5472 C.ar        1 UI1      -0.0476
     27 C27        27.2107   10.1753   30.9210 C.cat       1 UI1       0.2346
     28 N28        28.4455   10.3507   30.6370 N.pl3       1 UI1      -0.2724
     29 N29        26.8752    8.9495   31.0872 N.pl3       1 UI1      -0.2724
     30 C30        21.2683   18.8319   33.2312 C.ar        1 UI1      -0.0471
     31 C31        20.2335   19.7342   33.5300 C.ar        1 UI1      -0.0682
     32 H1         15.8534   20.5169   33.9776 H           1 UI1       0.2005
     33 H2         16.6443   19.1186   34.3988 H           1 UI1       0.2005
     34 H3         16.1988   19.3796   32.8070 H           1 UI1       0.2005
     35 H4         18.0771   21.0300   34.3169 H           1 UI1       0.0950
     36 H5         17.7393   21.1665   32.5881 H           1 UI1       0.0950
     37 H6         17.7138   18.1249   31.9728 H           1 UI1       0.0522
     38 H7         19.4796   16.5641   31.5081 H           1 UI1       0.0488
     39 H8         21.8478   15.8750   32.6987 H           1 UI1       0.2231
     40 H9         25.4388   16.9981   30.5254 H           1 UI1       0.0523
     41 H10        28.0426   14.6677   30.1535 H           1 UI1       0.2211
     42 H11        30.5662   17.3158   27.7603 H           1 UI1       0.0903
     43 H12        29.0835   19.0143   26.8104 H           1 UI1       0.0673
     44 H13        26.6952   18.8888   27.3493 H           1 UI1       0.0903
     45 H14        27.5467   12.7289   30.2267 H           1 UI1       0.0632
     46 H15        24.7056   10.1052   31.9118 H           1 UI1       0.0617
     47 H16        23.1943   11.8972   32.1688 H           1 UI1       0.0609
     48 H17        22.6189   14.2314   31.9389 H           1 UI1       0.0557
     49 H18        29.0199    9.6159   30.5656 H           1 UI1       0.3181
     50 H19        28.7856   11.2105   30.5086 H           1 UI1       0.3181
     51 H20        25.9941    8.7233   31.2949 H           1 UI1       0.3181
     52 H21        27.5140    8.2727   30.9987 H           1 UI1       0.3181
     53 H22        22.2175   19.0283   33.5572 H           1 UI1       0.0488
     54 H23        20.4547   20.5831   34.0492 H           1 UI1       0.0522
@<TRIPOS>BOND
     1     1     2   1
     2     2     3   1
     3     3     4  ar
     4     3    31  ar
     5     4     5  ar
     6     5     6  ar
     7     6     7   1
     8     6    30  ar
     9     7     8  am
    10     8     9   2
    11     8    10   1
    12    10    11  ar
    13    10    26  ar
    14    11    12  ar
    15    12    13   1
    16    12    20  ar
    17    13    14   1
    18    14    15  ar
    19    14    19  ar
    20    15    16  ar
    21    16    17  ar
    22    17    18  ar
    23    18    19  ar
    24    20    21  ar
    25    20    25  ar
    26    21    22  ar
    27    22    23  ar
    28    22    27   1
    29    23    24  ar
    30    24    25  ar
    31    25    26  ar
    32    27    28  ar
    33    27    29  ar
    34    30    31  ar
    35     1    32   1
    36     1    33   1
    37     1    34   1
    38     2    35   1
    39     2    36   1
    40     4    37   1
    41     5    38   1
    42     7    39   1
    43    11    40   1
    44    13    41   1
    45    16    42   1
    46    17    43   1
    47    18    44   1
    48    21    45   1
    49    23    46   1
    50    24    47   1
    51    26    48   1
    52    28    49   1
    53    28    50   1
    54    29    51   1
    55    29    52   1
    56    30    53   1
    57    31    54   1
@<TRIPOS>SUBSTRUCTURE
     1  UI1      2

