@<TRIPOS>MOLECULE
1sqa_ligand_005
    54    57
SMALL
GAST_HUCK
****
This file was generated by PARSER (from files_GN.cpp)

@<TRIPOS>ATOM
      1 N1         18.8612   20.6086   34.3995 N.4         1 UI1       0.2289
      2 C2         18.3395   19.2771   34.0712 C.3         1 UI1      -0.0082
      3 C3         19.4076   18.3448   33.6263 C.ar        1 UI1      -0.0133
      4 C4         19.4191   17.8125   32.3164 C.ar        1 UI1      -0.0682
      5 C5         20.4122   16.8964   31.9223 C.ar        1 UI1      -0.0471
      6 C6         21.3986   16.4636   32.8333 C.ar        1 UI1       0.0594
      7 N7         22.3160   15.5515   32.4101 N.am        1 UI1      -0.2371
      8 C8         22.7370   14.4413   33.0237 C.2         1 UI1       0.2269
      9 O9         22.1832   14.0834   34.0615 O.2         1 UI1      -0.3740
     10 C10        23.7747   13.6645   32.4990 C.ar        1 UI1       0.0420
     11 C11        24.5230   12.8123   33.3488 C.ar        1 UI1      -0.0212
     12 C12        25.6223   12.0554   32.8849 C.ar        1 UI1       0.0814
     13 N13        26.3040   11.2737   33.7742 N.pl3       1 UI1      -0.2366
     14 C14        26.9929   11.7405   34.8408 C.ar        1 UI1       0.2162
     15 N15        27.1078   13.0646   35.1320 N.ar        1 UI1      -0.2483
     16 C16        27.8439   13.5203   36.1773 C.ar        1 UI1       0.0160
     17 C17        28.5136   12.6006   37.0008 C.ar        1 UI1      -0.0217
     18 C18        28.3895   11.2344   36.6968 C.ar        1 UI1       0.0160
     19 N19        27.6433   10.8415   35.6296 N.ar        1 UI1      -0.2483
     20 C20        25.9717   12.0899   31.5082 C.ar        1 UI1       0.0152
     21 C21        27.0546   11.3439   30.9938 C.ar        1 UI1      -0.0470
     22 C22        27.4384   11.4028   29.6231 C.ar        1 UI1       0.0254
     23 C23        26.6923   12.2654   28.7822 C.ar        1 UI1      -0.0575
     24 C24        25.6110   13.0126   29.2728 C.ar        1 UI1      -0.0567
     25 C25        25.2332   12.9327   30.6336 C.ar        1 UI1      -0.0208
     26 C26        24.1598   13.7023   31.1335 C.ar        1 UI1      -0.0476
     27 C27        28.5108   10.6399   29.1276 C.cat       1 UI1       0.2346
     28 N28        29.0308    9.6726   29.7836 N.pl3       1 UI1      -0.2724
     29 N29        29.0433   10.8487   27.9840 N.pl3       1 UI1      -0.2724
     30 C30        21.4076   17.0236   34.1331 C.ar        1 UI1      -0.0471
     31 C31        20.4216   17.9460   34.5230 C.ar        1 UI1      -0.0682
     32 H1         18.1228   21.1580   34.8651 H           1 UI1       0.2005
     33 H2         19.1394   21.0850   33.5386 H           1 UI1       0.2005
     34 H3         19.6688   20.5402   35.0249 H           1 UI1       0.2005
     35 H4         17.5770   19.4030   33.3014 H           1 UI1       0.0950
     36 H5         17.8512   18.8576   34.9516 H           1 UI1       0.0950
     37 H6         18.6893   18.0732   31.6410 H           1 UI1       0.0522
     38 H7         20.3757   16.5025   30.9736 H           1 UI1       0.0488
     39 H8         22.6870   15.7124   31.5277 H           1 UI1       0.2231
     40 H9         24.2739   12.7364   34.3389 H           1 UI1       0.0523
     41 H10        26.3838   10.3291   33.5697 H           1 UI1       0.2211
     42 H11        27.9027   14.5282   36.3536 H           1 UI1       0.0903
     43 H12        29.0843   12.9268   37.7845 H           1 UI1       0.0673
     44 H13        28.8673   10.5392   37.2750 H           1 UI1       0.0903
     45 H14        27.5947   10.7611   31.6326 H           1 UI1       0.0632
     46 H15        26.9168   12.3486   27.7868 H           1 UI1       0.0617
     47 H16        25.0943   13.6149   28.6239 H           1 UI1       0.0609
     48 H17        23.6492   14.2944   30.4735 H           1 UI1       0.0557
     49 H18        29.7334    9.1823   29.4092 H           1 UI1       0.3181
     50 H19        28.7050    9.4385   30.6269 H           1 UI1       0.3181
     51 H20        28.7370   11.5390   27.4346 H           1 UI1       0.3181
     52 H21        29.7480   10.3048   27.6933 H           1 UI1       0.3181
     53 H22        22.1281   16.7558   34.8031 H           1 UI1       0.0488
     54 H23        20.4360   18.3047   35.4826 H           1 UI1       0.0522
@<TRIPOS>BOND
     1     1     2   1
     2     2     3   1
     3     3     4  ar
     4     3    31  ar
     5     4     5  ar
     6     5     6  ar
     7     6     7   1
     8     6    30  ar
     9     7     8  am
    10     8     9   2
    11     8    10   1
    12    10    11  ar
    13    10    26  ar
    14    11    12  ar
    15    12    13   1
    16    12    20  ar
    17    13    14   1
    18    14    15  ar
    19    14    19  ar
    20    15    16  ar
    21    16    17  ar
    22    17    18  ar
    23    18    19  ar
    24    20    21  ar
    25    20    25  ar
    26    21    22  ar
    27    22    23  ar
    28    22    27   1
    29    23    24  ar
    30    24    25  ar
    31    25    26  ar
    32    27    28  ar
    33    27    29  ar
    34    30    31  ar
    35     1    32   1
    36     1    33   1
    37     1    34   1
    38     2    35   1
    39     2    36   1
    40     4    37   1
    41     5    38   1
    42     7    39   1
    43    11    40   1
    44    13    41   1
    45    16    42   1
    46    17    43   1
    47    18    44   1
    48    21    45   1
    49    23    46   1
    50    24    47   1
    51    26    48   1
    52    28    49   1
    53    28    50   1
    54    29    51   1
    55    29    52   1
    56    30    53   1
    57    31    54   1
@<TRIPOS>SUBSTRUCTURE
     1  UI1      2

