@<TRIPOS>MOLECULE
1sqa_ligand_026
    54    57
SMALL
GAST_HUCK
****
This file was generated by PARSER (from files_GN.cpp)

@<TRIPOS>ATOM
      1 N1         32.0397   23.0881   34.3191 N.4         1 UI1       0.2289
      2 C2         30.7305   23.7015   34.5712 C.3         1 UI1      -0.0082
      3 C3         29.6430   22.7242   34.3205 C.ar        1 UI1      -0.0133
      4 C4         29.4053   21.6815   35.2443 C.ar        1 UI1      -0.0682
      5 C5         28.3494   20.7734   35.0428 C.ar        1 UI1      -0.0471
      6 C6         27.5485   20.8545   33.8838 C.ar        1 UI1       0.0594
      7 N7         26.4900   20.0020   33.7698 N.am        1 UI1      -0.2371
      8 C8         26.2031   19.2014   32.7474 C.2         1 UI1       0.2269
      9 O9         26.9815   19.1114   31.8033 O.2         1 UI1      -0.3740
     10 C10        25.0716   18.3828   32.7951 C.ar        1 UI1       0.0420
     11 C11        25.0243   17.1460   32.1105 C.ar        1 UI1      -0.0212
     12 C12        23.9067   16.2826   32.1954 C.ar        1 UI1       0.0814
     13 N13        24.0140   15.0967   31.5284 N.pl3       1 UI1      -0.2366
     14 C14        23.9735   13.8638   32.0810 C.ar        1 UI1       0.2162
     15 N15        24.1187   12.7983   31.2506 N.ar        1 UI1      -0.2483
     16 C16        24.0703   11.5194   31.7036 C.ar        1 UI1       0.0160
     17 C17        23.8931   11.2719   33.0743 C.ar        1 UI1      -0.0217
     18 C18        23.7793   12.3807   33.9274 C.ar        1 UI1       0.0160
     19 N19        23.8152   13.6369   33.4153 N.ar        1 UI1      -0.2483
     20 C20        22.7495   16.6984   32.9177 C.ar        1 UI1       0.0152
     21 C21        21.5442   15.9465   32.9574 C.ar        1 UI1      -0.0470
     22 C22        20.3982   16.3692   33.6846 C.ar        1 UI1       0.0254
     23 C23        20.4968   17.5952   34.3872 C.ar        1 UI1      -0.0575
     24 C24        21.6629   18.3743   34.3408 C.ar        1 UI1      -0.0567
     25 C25        22.7831   17.9468   33.6032 C.ar        1 UI1      -0.0208
     26 C26        23.9327   18.7611   33.5427 C.ar        1 UI1      -0.0476
     27 C27        19.2059   15.6180   33.7153 C.cat       1 UI1       0.2346
     28 N28        19.1202   14.4212   33.2735 N.pl3       1 UI1      -0.2724
     29 N29        18.1096   16.0781   34.1855 N.pl3       1 UI1      -0.2724
     30 C30        27.7958   21.8818   32.9503 C.ar        1 UI1      -0.0471
     31 C31        28.8257   22.8126   33.1714 C.ar        1 UI1      -0.0682
     32 H1         32.7792   23.7582   34.5323 H           1 UI1       0.2005
     33 H2         32.1028   22.8179   33.3329 H           1 UI1       0.2005
     34 H3         32.1546   22.2581   34.9053 H           1 UI1       0.2005
     35 H4         30.6411   24.5780   33.9271 H           1 UI1       0.0950
     36 H5         30.6953   24.0464   35.6087 H           1 UI1       0.0950
     37 H6         29.9847   21.5864   36.0850 H           1 UI1       0.0522
     38 H7         28.1792   20.0384   35.7396 H           1 UI1       0.0488
     39 H8         25.9336   19.9126   34.5607 H           1 UI1       0.2231
     40 H9         25.8428   16.8353   31.5756 H           1 UI1       0.0523
     41 H10        24.2775   15.1416   30.5957 H           1 UI1       0.2211
     42 H11        24.1604   10.7415   31.0452 H           1 UI1       0.0903
     43 H12        23.8524   10.3163   33.4376 H           1 UI1       0.0673
     44 H13        23.6693   12.2460   34.9321 H           1 UI1       0.0903
     45 H14        21.4933   15.0825   32.4133 H           1 UI1       0.0632
     46 H15        19.7190   17.9525   34.9435 H           1 UI1       0.0617
     47 H16        21.6803   19.2662   34.8456 H           1 UI1       0.0609
     48 H17        23.9240   19.6603   34.0324 H           1 UI1       0.0557
     49 H18        18.3052   13.9633   33.3205 H           1 UI1       0.3181
     50 H19        19.8569   13.9933   32.8941 H           1 UI1       0.3181
     51 H20        18.0638   16.9484   34.5156 H           1 UI1       0.3181
     52 H21        17.3389   15.5452   34.1907 H           1 UI1       0.3181
     53 H22        27.2033   21.9798   32.1220 H           1 UI1       0.0488
     54 H23        28.9731   23.5587   32.4884 H           1 UI1       0.0522
@<TRIPOS>BOND
     1     1     2   1
     2     2     3   1
     3     3     4  ar
     4     3    31  ar
     5     4     5  ar
     6     5     6  ar
     7     6     7   1
     8     6    30  ar
     9     7     8  am
    10     8     9   2
    11     8    10   1
    12    10    11  ar
    13    10    26  ar
    14    11    12  ar
    15    12    13   1
    16    12    20  ar
    17    13    14   1
    18    14    15  ar
    19    14    19  ar
    20    15    16  ar
    21    16    17  ar
    22    17    18  ar
    23    18    19  ar
    24    20    21  ar
    25    20    25  ar
    26    21    22  ar
    27    22    23  ar
    28    22    27   1
    29    23    24  ar
    30    24    25  ar
    31    25    26  ar
    32    27    28  ar
    33    27    29  ar
    34    30    31  ar
    35     1    32   1
    36     1    33   1
    37     1    34   1
    38     2    35   1
    39     2    36   1
    40     4    37   1
    41     5    38   1
    42     7    39   1
    43    11    40   1
    44    13    41   1
    45    16    42   1
    46    17    43   1
    47    18    44   1
    48    21    45   1
    49    23    46   1
    50    24    47   1
    51    26    48   1
    52    28    49   1
    53    28    50   1
    54    29    51   1
    55    29    52   1
    56    30    53   1
    57    31    54   1
@<TRIPOS>SUBSTRUCTURE
     1  UI1      2

