@<TRIPOS>MOLECULE
1sqa_ligand_022
    54    57
SMALL
GAST_HUCK
****
This file was generated by PARSER (from files_GN.cpp)

@<TRIPOS>ATOM
      1 N1         19.3125   15.2920   32.0012 N.4         1 UI1       0.2289
      2 C2         20.1155   16.4666   31.6429 C.3         1 UI1      -0.0082
      3 C3         20.9593   16.9640   32.7638 C.ar        1 UI1      -0.0133
      4 C4         20.9874   18.3351   33.0980 C.ar        1 UI1      -0.0682
      5 C5         21.7990   18.8081   34.1428 C.ar        1 UI1      -0.0471
      6 C6         22.5830   17.9251   34.9101 C.ar        1 UI1       0.0594
      7 N7         23.3635   18.4792   35.8847 N.am        1 UI1      -0.2371
      8 C8         23.6259   18.0493   37.1110 C.2         1 UI1       0.2269
      9 O9         23.1293   17.0097   37.5255 O.2         1 UI1      -0.3740
     10 C10        24.4357   18.8079   37.9692 C.ar        1 UI1       0.0420
     11 C11        24.4934   20.2135   37.8769 C.ar        1 UI1      -0.0212
     12 C12        25.2998   20.9933   38.7398 C.ar        1 UI1       0.0814
     13 N13        25.2036   22.3419   38.5594 N.pl3       1 UI1      -0.2366
     14 C14        24.9093   23.2727   39.4937 C.ar        1 UI1       0.2162
     15 N15        24.8140   24.5672   39.0937 N.ar        1 UI1      -0.2483
     16 C16        24.5194   25.5726   39.9588 C.ar        1 UI1       0.0160
     17 C17        24.3035   25.2785   41.3180 C.ar        1 UI1      -0.0217
     18 C18        24.4012   23.9368   41.7191 C.ar        1 UI1       0.0160
     19 N19        24.6921   22.9750   40.8093 N.ar        1 UI1      -0.2483
     20 C20        26.1418   20.3417   39.6827 C.ar        1 UI1       0.0152
     21 C21        27.0860   21.0459   40.4755 C.ar        1 UI1      -0.0470
     22 C22        27.9168   20.4149   41.4376 C.ar        1 UI1       0.0254
     23 C23        27.7966   19.0058   41.5528 C.ar        1 UI1      -0.0575
     24 C24        26.9034   18.2731   40.7516 C.ar        1 UI1      -0.0567
     25 C25        26.0755   18.9282   39.8098 C.ar        1 UI1      -0.0208
     26 C26        25.2159   18.1796   38.9732 C.ar        1 UI1      -0.0476
     27 C27        28.8237   21.1519   42.2365 C.cat       1 UI1       0.2346
     28 N28        28.8700   22.4276   42.2434 N.pl3       1 UI1      -0.2724
     29 N29        29.6687   20.5973   43.0183 N.pl3       1 UI1      -0.2724
     30 C30        22.5879   16.5551   34.5647 C.ar        1 UI1      -0.0471
     31 C31        21.8060   16.0862   33.4895 C.ar        1 UI1      -0.0682
     32 H1         18.7155   15.0414   31.2075 H           1 UI1       0.2005
     33 H2         18.7179   15.5058   32.8099 H           1 UI1       0.2005
     34 H3         19.9226   14.5089   32.2183 H           1 UI1       0.2005
     35 H4         19.3997   17.2187   31.2869 H           1 UI1       0.0950
     36 H5         20.7687   16.2066   30.8145 H           1 UI1       0.0950
     37 H6         20.4207   19.0103   32.5768 H           1 UI1       0.0522
     38 H7         21.8061   19.8103   34.3519 H           1 UI1       0.0488
     39 H8         23.7434   19.3400   35.6542 H           1 UI1       0.2231
     40 H9         23.8962   20.7041   37.1959 H           1 UI1       0.0523
     41 H10        25.1801   22.6559   37.6410 H           1 UI1       0.2211
     42 H11        24.4501   26.5320   39.6188 H           1 UI1       0.0903
     43 H12        24.0787   26.0149   41.9861 H           1 UI1       0.0673
     44 H13        24.2614   23.6751   42.6990 H           1 UI1       0.0903
     45 H14        27.1900   22.0477   40.3262 H           1 UI1       0.0632
     46 H15        28.3660   18.4849   42.2249 H           1 UI1       0.0617
     47 H16        26.8721   17.2536   40.8547 H           1 UI1       0.0609
     48 H17        25.1870   17.1627   39.0565 H           1 UI1       0.0557
     49 H18        29.4889   22.8705   42.7884 H           1 UI1       0.3181
     50 H19        28.2911   22.9333   41.7131 H           1 UI1       0.3181
     51 H20        29.7193   19.6683   43.0864 H           1 UI1       0.3181
     52 H21        30.2502   21.1244   43.5279 H           1 UI1       0.3181
     53 H22        23.1883   15.9006   35.0737 H           1 UI1       0.0488
     54 H23        21.8547   15.0960   33.2378 H           1 UI1       0.0522
@<TRIPOS>BOND
     1     1     2   1
     2     2     3   1
     3     3     4  ar
     4     3    31  ar
     5     4     5  ar
     6     5     6  ar
     7     6     7   1
     8     6    30  ar
     9     7     8  am
    10     8     9   2
    11     8    10   1
    12    10    11  ar
    13    10    26  ar
    14    11    12  ar
    15    12    13   1
    16    12    20  ar
    17    13    14   1
    18    14    15  ar
    19    14    19  ar
    20    15    16  ar
    21    16    17  ar
    22    17    18  ar
    23    18    19  ar
    24    20    21  ar
    25    20    25  ar
    26    21    22  ar
    27    22    23  ar
    28    22    27   1
    29    23    24  ar
    30    24    25  ar
    31    25    26  ar
    32    27    28  ar
    33    27    29  ar
    34    30    31  ar
    35     1    32   1
    36     1    33   1
    37     1    34   1
    38     2    35   1
    39     2    36   1
    40     4    37   1
    41     5    38   1
    42     7    39   1
    43    11    40   1
    44    13    41   1
    45    16    42   1
    46    17    43   1
    47    18    44   1
    48    21    45   1
    49    23    46   1
    50    24    47   1
    51    26    48   1
    52    28    49   1
    53    28    50   1
    54    29    51   1
    55    29    52   1
    56    30    53   1
    57    31    54   1
@<TRIPOS>SUBSTRUCTURE
     1  UI1      2

