@<TRIPOS>MOLECULE
1sqa_ligand_006
    54    57
SMALL
GAST_HUCK
****
This file was generated by PARSER (from files_GN.cpp)

@<TRIPOS>ATOM
      1 N1         26.9344    9.9128   32.8867 N.4         1 UI1       0.2289
      2 C2         25.9336    9.9232   33.9598 C.3         1 UI1      -0.0082
      3 C3         25.1142   11.1588   33.8982 C.ar        1 UI1      -0.0133
      4 C4         25.7168   12.4091   34.1531 C.ar        1 UI1      -0.0682
      5 C5         24.9599   13.5926   34.1024 C.ar        1 UI1      -0.0471
      6 C6         23.5759   13.5617   33.8241 C.ar        1 UI1       0.0594
      7 N7         22.9392   14.7745   33.8080 N.am        1 UI1      -0.2371
      8 C8         21.6566   15.1104   33.9425 C.2         1 UI1       0.2269
      9 O9         20.8101   14.2395   34.1118 O.2         1 UI1      -0.3740
     10 C10        21.2536   16.4558   33.9634 C.ar        1 UI1       0.0420
     11 C11        22.1904   17.5050   34.0975 C.ar        1 UI1      -0.0212
     12 C12        21.8411   18.8715   34.0214 C.ar        1 UI1       0.0814
     13 N13        22.8365   19.8180   34.0851 N.pl3       1 UI1      -0.2366
     14 C14        24.0411   19.7700   33.4547 C.ar        1 UI1       0.2162
     15 N15        24.9534   20.7492   33.6978 N.ar        1 UI1      -0.2483
     16 C16        26.1811   20.7501   33.1187 C.ar        1 UI1       0.0160
     17 C17        26.5428   19.7226   32.2305 C.ar        1 UI1      -0.0217
     18 C18        25.5972   18.7181   31.9729 C.ar        1 UI1       0.0160
     19 N19        24.3855   18.7803   32.5798 N.ar        1 UI1      -0.2483
     20 C20        20.4618   19.2229   33.9638 C.ar        1 UI1       0.0152
     21 C21        20.0077   20.5662   33.9592 C.ar        1 UI1      -0.0470
     22 C22        18.6282   20.9180   33.9430 C.ar        1 UI1       0.0254
     23 C23        17.6936   19.8503   33.8900 C.ar        1 UI1      -0.0575
     24 C24        18.1166   18.5115   33.8544 C.ar        1 UI1      -0.0567
     25 C25        19.4885   18.1866   33.8978 C.ar        1 UI1      -0.0208
     26 C26        19.8896   16.8319   33.8818 C.ar        1 UI1      -0.0476
     27 C27        18.2040   22.2566   33.9978 C.cat       1 UI1       0.2346
     28 N28        19.0162   23.2456   33.9757 N.pl3       1 UI1      -0.2724
     29 N29        16.9751   22.6074   34.0968 N.pl3       1 UI1      -0.2724
     30 C30        22.9768   12.3081   33.5571 C.ar        1 UI1      -0.0471
     31 C31        23.7358   11.1234   33.5944 C.ar        1 UI1      -0.0682
     32 H1         27.4806    9.0510   32.9379 H           1 UI1       0.2005
     33 H2         27.5596   10.7149   32.9891 H           1 UI1       0.2005
     34 H3         26.4655    9.9621   31.9793 H           1 UI1       0.2005
     35 H4         26.4437    9.8748   34.9243 H           1 UI1       0.0950
     36 H5         25.3193    9.0271   33.8609 H           1 UI1       0.0950
     37 H6         26.7146   12.4673   34.3799 H           1 UI1       0.0522
     38 H7         25.4315   14.4821   34.2972 H           1 UI1       0.0488
     39 H8         23.5468   15.5234   33.7368 H           1 UI1       0.2231
     40 H9         23.1670   17.2771   34.2844 H           1 UI1       0.0523
     41 H10        22.6471   20.6132   34.6098 H           1 UI1       0.2211
     42 H11        26.8468   21.4930   33.3335 H           1 UI1       0.0903
     43 H12        27.4626   19.6992   31.7950 H           1 UI1       0.0673
     44 H13        25.8179   17.9380   31.3557 H           1 UI1       0.0903
     45 H14        20.7050   21.3105   33.9926 H           1 UI1       0.0632
     46 H15        16.6869   20.0285   33.8807 H           1 UI1       0.0617
     47 H16        17.4059   17.7731   33.8101 H           1 UI1       0.0609
     48 H17        19.1687   16.1068   33.8206 H           1 UI1       0.0557
     49 H18        18.6823   24.1159   34.0376 H           1 UI1       0.3181
     50 H19        19.9369   23.1075   33.9125 H           1 UI1       0.3181
     51 H20        16.2936   21.9724   34.1620 H           1 UI1       0.3181
     52 H21        16.7627   23.5188   34.1384 H           1 UI1       0.3181
     53 H22        21.9867   12.2367   33.3244 H           1 UI1       0.0488
     54 H23        23.2733   10.2333   33.3911 H           1 UI1       0.0522
@<TRIPOS>BOND
     1     1     2   1
     2     2     3   1
     3     3     4  ar
     4     3    31  ar
     5     4     5  ar
     6     5     6  ar
     7     6     7   1
     8     6    30  ar
     9     7     8  am
    10     8     9   2
    11     8    10   1
    12    10    11  ar
    13    10    26  ar
    14    11    12  ar
    15    12    13   1
    16    12    20  ar
    17    13    14   1
    18    14    15  ar
    19    14    19  ar
    20    15    16  ar
    21    16    17  ar
    22    17    18  ar
    23    18    19  ar
    24    20    21  ar
    25    20    25  ar
    26    21    22  ar
    27    22    23  ar
    28    22    27   1
    29    23    24  ar
    30    24    25  ar
    31    25    26  ar
    32    27    28  ar
    33    27    29  ar
    34    30    31  ar
    35     1    32   1
    36     1    33   1
    37     1    34   1
    38     2    35   1
    39     2    36   1
    40     4    37   1
    41     5    38   1
    42     7    39   1
    43    11    40   1
    44    13    41   1
    45    16    42   1
    46    17    43   1
    47    18    44   1
    48    21    45   1
    49    23    46   1
    50    24    47   1
    51    26    48   1
    52    28    49   1
    53    28    50   1
    54    29    51   1
    55    29    52   1
    56    30    53   1
    57    31    54   1
@<TRIPOS>SUBSTRUCTURE
     1  UI1      2

