@<TRIPOS>MOLECULE
1sqa_ligand_008
    54    57
SMALL
GAST_HUCK
****
This file was generated by PARSER (from files_GN.cpp)

@<TRIPOS>ATOM
      1 N1         18.7429   20.9561   34.3906 N.4         1 UI1       0.2289
      2 C2         18.4718   19.5327   34.1367 C.3         1 UI1      -0.0082
      3 C3         19.5513   18.8574   33.3618 C.ar        1 UI1      -0.0133
      4 C4         19.2378   17.8016   32.4734 C.ar        1 UI1      -0.0682
      5 C5         20.2568   17.1007   31.7921 C.ar        1 UI1      -0.0471
      6 C6         21.6093   17.4627   31.9507 C.ar        1 UI1       0.0594
      7 N7         22.5791   16.7614   31.2791 N.am        1 UI1      -0.2371
      8 C8         23.5490   17.2462   30.4928 C.2         1 UI1       0.2269
      9 O9         23.4597   18.4259   30.1506 O.2         1 UI1      -0.3740
     10 C10        24.6126   16.4623   30.0044 C.ar        1 UI1       0.0420
     11 C11        25.7220   17.0668   29.3589 C.ar        1 UI1      -0.0212
     12 C12        26.8305   16.3272   28.8831 C.ar        1 UI1       0.0814
     13 N13        27.8583   16.9595   28.2488 N.pl3       1 UI1      -0.2366
     14 C14        28.7033   17.8553   28.8066 C.ar        1 UI1       0.2162
     15 N15        29.7258   18.3172   28.0381 N.ar        1 UI1      -0.2483
     16 C16        30.6427   19.1931   28.5188 C.ar        1 UI1       0.0160
     17 C17        30.5492   19.6455   29.8449 C.ar        1 UI1      -0.0217
     18 C18        29.4815   19.1711   30.6250 C.ar        1 UI1       0.0160
     19 N19        28.5966   18.2926   30.0909 N.ar        1 UI1      -0.2483
     20 C20        26.8429   14.9191   29.0420 C.ar        1 UI1       0.0152
     21 C21        27.9253   14.1145   28.6019 C.ar        1 UI1      -0.0470
     22 C22        27.9739   12.7086   28.8040 C.ar        1 UI1       0.0254
     23 C23        26.8559   12.1158   29.4444 C.ar        1 UI1      -0.0575
     24 C24        25.7767   12.8859   29.9043 C.ar        1 UI1      -0.0567
     25 C25        25.7582   14.2839   29.7062 C.ar        1 UI1      -0.0208
     26 C26        24.6715   15.0565   30.1882 C.ar        1 UI1      -0.0476
     27 C27        29.0905   11.9458   28.4079 C.cat       1 UI1       0.2346
     28 N28        30.2147   12.4788   28.1061 N.pl3       1 UI1      -0.2724
     29 N29        29.0664   10.6686   28.3266 N.pl3       1 UI1      -0.2724
     30 C30        21.9260   18.4995   32.8589 C.ar        1 UI1      -0.0471
     31 C31        20.9122   19.1847   33.5516 C.ar        1 UI1      -0.0682
     32 H1         17.9247   21.3791   34.8401 H           1 UI1       0.2005
     33 H2         18.9404   21.4336   33.5060 H           1 UI1       0.2005
     34 H3         19.5538   21.0396   35.0234 H           1 UI1       0.2005
     35 H4         17.5100   19.4738   33.6127 H           1 UI1       0.0950
     36 H5         18.3626   19.0246   35.0993 H           1 UI1       0.0950
     37 H6         18.2634   17.5124   32.3275 H           1 UI1       0.0522
     38 H7         19.9969   16.3431   31.1608 H           1 UI1       0.0488
     39 H8         22.5390   15.7892   31.3778 H           1 UI1       0.2231
     40 H9         25.7299   18.0787   29.2049 H           1 UI1       0.0523
     41 H10        28.0838   16.6398   27.3618 H           1 UI1       0.2211
     42 H11        31.3903   19.5269   27.9089 H           1 UI1       0.0903
     43 H12        31.2298   20.2988   30.2284 H           1 UI1       0.0673
     44 H13        29.3601   19.4852   31.5885 H           1 UI1       0.0903
     45 H14        28.7030   14.5657   28.1247 H           1 UI1       0.0632
     46 H15        26.8343   11.1071   29.6298 H           1 UI1       0.0617
     47 H16        25.0080   12.4203   30.3913 H           1 UI1       0.0609
     48 H17        23.9017   14.5773   30.6685 H           1 UI1       0.0557
     49 H18        30.9384   11.9391   27.8528 H           1 UI1       0.3181
     50 H19        30.3270   13.4063   28.1556 H           1 UI1       0.3181
     51 H20        28.2855   10.1946   28.5283 H           1 UI1       0.3181
     52 H21        29.8357   10.1985   28.0705 H           1 UI1       0.3181
     53 H22        22.8975   18.7544   33.0471 H           1 UI1       0.0488
     54 H23        21.1706   19.9374   34.2030 H           1 UI1       0.0522
@<TRIPOS>BOND
     1     1     2   1
     2     2     3   1
     3     3     4  ar
     4     3    31  ar
     5     4     5  ar
     6     5     6  ar
     7     6     7   1
     8     6    30  ar
     9     7     8  am
    10     8     9   2
    11     8    10   1
    12    10    11  ar
    13    10    26  ar
    14    11    12  ar
    15    12    13   1
    16    12    20  ar
    17    13    14   1
    18    14    15  ar
    19    14    19  ar
    20    15    16  ar
    21    16    17  ar
    22    17    18  ar
    23    18    19  ar
    24    20    21  ar
    25    20    25  ar
    26    21    22  ar
    27    22    23  ar
    28    22    27   1
    29    23    24  ar
    30    24    25  ar
    31    25    26  ar
    32    27    28  ar
    33    27    29  ar
    34    30    31  ar
    35     1    32   1
    36     1    33   1
    37     1    34   1
    38     2    35   1
    39     2    36   1
    40     4    37   1
    41     5    38   1
    42     7    39   1
    43    11    40   1
    44    13    41   1
    45    16    42   1
    46    17    43   1
    47    18    44   1
    48    21    45   1
    49    23    46   1
    50    24    47   1
    51    26    48   1
    52    28    49   1
    53    28    50   1
    54    29    51   1
    55    29    52   1
    56    30    53   1
    57    31    54   1
@<TRIPOS>SUBSTRUCTURE
     1  UI1      2

