@<TRIPOS>MOLECULE
1sqa_ligand_024
    54    57
SMALL
GAST_HUCK
****
This file was generated by PARSER (from files_GN.cpp)

@<TRIPOS>ATOM
      1 N1         16.3892   18.5165   31.7450 N.4         1 UI1       0.2289
      2 C2         17.5903   17.7492   31.3860 C.3         1 UI1      -0.0082
      3 C3         18.7760   17.9450   32.2616 C.ar        1 UI1      -0.0133
      4 C4         18.7960   18.8600   33.3392 C.ar        1 UI1      -0.0682
      5 C5         19.9474   19.0106   34.1353 C.ar        1 UI1      -0.0471
      6 C6         21.1009   18.2337   33.8980 C.ar        1 UI1       0.0594
      7 N7         22.1705   18.4675   34.7223 N.am        1 UI1      -0.2371
      8 C8         23.1323   17.6518   35.1522 C.2         1 UI1       0.2269
      9 O9         23.0938   16.4693   34.8232 O.2         1 UI1      -0.3740
     10 C10        24.1414   18.0881   36.0355 C.ar        1 UI1       0.0420
     11 C11        25.1534   17.2090   36.4958 C.ar        1 UI1      -0.0212
     12 C12        26.1726   17.6155   37.3912 C.ar        1 UI1       0.0814
     13 N13        27.0734   16.6462   37.7517 N.pl3       1 UI1      -0.2366
     14 C14        27.4914   16.3175   39.0000 C.ar        1 UI1       0.2162
     15 N15        28.4692   15.3815   39.1199 N.ar        1 UI1      -0.2483
     16 C16        28.9988   15.0352   40.3232 C.ar        1 UI1       0.0160
     17 C17        28.5293   15.6569   41.4900 C.ar        1 UI1      -0.0217
     18 C18        27.4977   16.6000   41.3597 C.ar        1 UI1       0.0160
     19 N19        27.0095   16.9060   40.1309 N.ar        1 UI1      -0.2483
     20 C20        26.2267   18.9807   37.8027 C.ar        1 UI1       0.0152
     21 C21        27.2777   19.5130   38.5986 C.ar        1 UI1      -0.0470
     22 C22        27.2617   20.8417   39.1111 C.ar        1 UI1       0.0254
     23 C23        26.2084   21.6834   38.6734 C.ar        1 UI1      -0.0575
     24 C24        25.2159   21.2169   37.8017 C.ar        1 UI1      -0.0567
     25 C25        25.2083   19.8726   37.3759 C.ar        1 UI1      -0.0208
     26 C26        24.1939   19.4245   36.5030 C.ar        1 UI1      -0.0476
     27 C27        28.2306   21.3020   40.0243 C.cat       1 UI1       0.2346
     28 N28        29.1907   20.5705   40.4478 N.pl3       1 UI1      -0.2724
     29 N29        28.2151   22.4790   40.5286 N.pl3       1 UI1      -0.2724
     30 C30        21.0921   17.3301   32.8088 C.ar        1 UI1      -0.0471
     31 C31        19.9433   17.1904   32.0057 C.ar        1 UI1      -0.0682
     32 H1         15.6519   18.3477   31.0543 H           1 UI1       0.2005
     33 H2         16.6124   19.5136   31.7649 H           1 UI1       0.2005
     34 H3         16.0595   18.2227   32.6667 H           1 UI1       0.2005
     35 H4         17.8503   18.0161   30.3628 H           1 UI1       0.0950
     36 H5         17.3108   16.6975   31.3986 H           1 UI1       0.0950
     37 H6         17.9778   19.4308   33.5615 H           1 UI1       0.0522
     38 H7         19.9285   19.6835   34.9084 H           1 UI1       0.0488
     39 H8         22.1740   19.3593   35.1037 H           1 UI1       0.2231
     40 H9         25.1547   16.2323   36.1850 H           1 UI1       0.0523
     41 H10        27.3969   16.0756   37.0358 H           1 UI1       0.2211
     42 H11        29.7460   14.3443   40.3733 H           1 UI1       0.0903
     43 H12        28.9307   15.4399   42.4059 H           1 UI1       0.0673
     44 H13        27.1172   17.0727   42.1840 H           1 UI1       0.0903
     45 H14        28.0768   18.9111   38.8066 H           1 UI1       0.0632
     46 H15        26.1529   22.6611   38.9672 H           1 UI1       0.0617
     47 H16        24.4948   21.8682   37.4871 H           1 UI1       0.0609
     48 H17        23.4951   20.1020   36.1991 H           1 UI1       0.0557
     49 H18        29.8046   20.9166   41.0627 H           1 UI1       0.3181
     50 H19        29.2825   19.6886   40.1565 H           1 UI1       0.3181
     51 H20        27.5454   23.0866   40.3024 H           1 UI1       0.3181
     52 H21        28.8740   22.7334   41.1395 H           1 UI1       0.3181
     53 H22        21.9233   16.7873   32.5763 H           1 UI1       0.0488
     54 H23        19.9682   16.5293   31.2262 H           1 UI1       0.0522
@<TRIPOS>BOND
     1     1     2   1
     2     2     3   1
     3     3     4  ar
     4     3    31  ar
     5     4     5  ar
     6     5     6  ar
     7     6     7   1
     8     6    30  ar
     9     7     8  am
    10     8     9   2
    11     8    10   1
    12    10    11  ar
    13    10    26  ar
    14    11    12  ar
    15    12    13   1
    16    12    20  ar
    17    13    14   1
    18    14    15  ar
    19    14    19  ar
    20    15    16  ar
    21    16    17  ar
    22    17    18  ar
    23    18    19  ar
    24    20    21  ar
    25    20    25  ar
    26    21    22  ar
    27    22    23  ar
    28    22    27   1
    29    23    24  ar
    30    24    25  ar
    31    25    26  ar
    32    27    28  ar
    33    27    29  ar
    34    30    31  ar
    35     1    32   1
    36     1    33   1
    37     1    34   1
    38     2    35   1
    39     2    36   1
    40     4    37   1
    41     5    38   1
    42     7    39   1
    43    11    40   1
    44    13    41   1
    45    16    42   1
    46    17    43   1
    47    18    44   1
    48    21    45   1
    49    23    46   1
    50    24    47   1
    51    26    48   1
    52    28    49   1
    53    28    50   1
    54    29    51   1
    55    29    52   1
    56    30    53   1
    57    31    54   1
@<TRIPOS>SUBSTRUCTURE
     1  UI1      2

