@<TRIPOS>MOLECULE
1sqa_ligand_004
    54    57
SMALL
GAST_HUCK
****
This file was generated by PARSER (from files_GN.cpp)

@<TRIPOS>ATOM
      1 N1         18.7702   19.9677   35.3142 N.4         1 UI1       0.2289
      2 C2         18.3578   19.3283   34.0629 C.3         1 UI1      -0.0082
      3 C3         19.3422   18.2991   33.6438 C.ar        1 UI1      -0.0133
      4 C4         20.5844   18.6944   33.1065 C.ar        1 UI1      -0.0682
      5 C5         21.5412   17.7417   32.7040 C.ar        1 UI1      -0.0471
      6 C6         21.2953   16.3582   32.8688 C.ar        1 UI1       0.0594
      7 N7         22.2785   15.4919   32.4669 N.am        1 UI1      -0.2371
      8 C8         22.6109   14.3002   32.9891 C.2         1 UI1       0.2269
      9 O9         22.0129   13.9063   33.9940 O.2         1 UI1      -0.3740
     10 C10        23.5873   13.4857   32.4108 C.ar        1 UI1       0.0420
     11 C11        23.5113   12.0751   32.5451 C.ar        1 UI1      -0.0212
     12 C12        24.4458   11.2092   31.9242 C.ar        1 UI1       0.0814
     13 N13        24.2416    9.8616   32.0191 N.pl3       1 UI1      -0.2366
     14 C14        24.4625    9.1190   33.1276 C.ar        1 UI1       0.2162
     15 N15        24.2659    7.7782   33.0356 N.ar        1 UI1      -0.2483
     16 C16        24.5076    6.9422   34.0763 C.ar        1 UI1       0.0160
     17 C17        24.9852    7.4601   35.2901 C.ar        1 UI1      -0.0217
     18 C18        25.1854    8.8481   35.3777 C.ar        1 UI1       0.0160
     19 N19        24.9224    9.6364   34.3046 N.ar        1 UI1      -0.2483
     20 C20        25.5220   11.7469   31.1713 C.ar        1 UI1       0.0152
     21 C21        26.5078   10.9178   30.5735 C.ar        1 UI1      -0.0470
     22 C22        27.6069   11.4481   29.8417 C.ar        1 UI1       0.0254
     23 C23        27.6622   12.8618   29.7115 C.ar        1 UI1      -0.0575
     24 C24        26.6996   13.6977   30.3004 C.ar        1 UI1      -0.0567
     25 C25        25.6260   13.1575   31.0413 C.ar        1 UI1      -0.0208
     26 C26        24.6664   14.0046   31.6480 C.ar        1 UI1      -0.0476
     27 C27        28.5979   10.6130   29.2905 C.cat       1 UI1       0.2346
     28 N28        28.5665    9.3369   29.3488 N.pl3       1 UI1      -0.2724
     29 N29        29.6412   11.0592   28.6921 N.pl3       1 UI1      -0.2724
     30 C30        20.0353   15.9600   33.3842 C.ar        1 UI1      -0.0471
     31 C31        19.0675   16.9205   33.7488 C.ar        1 UI1      -0.0682
     32 H1         18.1406   20.7550   35.4993 H           1 UI1       0.2005
     33 H2         19.7303   20.3087   35.2575 H           1 UI1       0.2005
     34 H3         18.6812   19.2971   36.0784 H           1 UI1       0.2005
     35 H4         18.2714   20.0907   33.2829 H           1 UI1       0.0950
     36 H5         17.3644   18.8972   34.2163 H           1 UI1       0.0950
     37 H6         20.8080   19.6917   33.0145 H           1 UI1       0.0522
     38 H7         22.4296   18.0690   32.3221 H           1 UI1       0.0488
     39 H8         22.8210   15.7839   31.7164 H           1 UI1       0.2231
     40 H9         22.7338   11.6612   33.0639 H           1 UI1       0.0523
     41 H10        24.0197    9.3859   31.2070 H           1 UI1       0.2211
     42 H11        24.3485    5.9393   33.9642 H           1 UI1       0.0903
     43 H12        25.1850    6.8466   36.0827 H           1 UI1       0.0673
     44 H13        25.5356    9.2662   36.2385 H           1 UI1       0.0903
     45 H14        26.4352    9.9069   30.6875 H           1 UI1       0.0632
     46 H15        28.4205   13.3120   29.1776 H           1 UI1       0.0617
     47 H16        26.7874   14.7113   30.1808 H           1 UI1       0.0609
     48 H17        24.7733   15.0150   31.5498 H           1 UI1       0.0557
     49 H18        29.2728    8.8455   28.9823 H           1 UI1       0.3181
     50 H19        27.8613    8.8878   29.7603 H           1 UI1       0.3181
     51 H20        29.7840   11.9751   28.5963 H           1 UI1       0.3181
     52 H21        30.2713   10.4532   28.3508 H           1 UI1       0.3181
     53 H22        19.8069   14.9673   33.4770 H           1 UI1       0.0488
     54 H23        18.1587   16.5973   34.1116 H           1 UI1       0.0522
@<TRIPOS>BOND
     1     1     2   1
     2     2     3   1
     3     3     4  ar
     4     3    31  ar
     5     4     5  ar
     6     5     6  ar
     7     6     7   1
     8     6    30  ar
     9     7     8  am
    10     8     9   2
    11     8    10   1
    12    10    11  ar
    13    10    26  ar
    14    11    12  ar
    15    12    13   1
    16    12    20  ar
    17    13    14   1
    18    14    15  ar
    19    14    19  ar
    20    15    16  ar
    21    16    17  ar
    22    17    18  ar
    23    18    19  ar
    24    20    21  ar
    25    20    25  ar
    26    21    22  ar
    27    22    23  ar
    28    22    27   1
    29    23    24  ar
    30    24    25  ar
    31    25    26  ar
    32    27    28  ar
    33    27    29  ar
    34    30    31  ar
    35     1    32   1
    36     1    33   1
    37     1    34   1
    38     2    35   1
    39     2    36   1
    40     4    37   1
    41     5    38   1
    42     7    39   1
    43    11    40   1
    44    13    41   1
    45    16    42   1
    46    17    43   1
    47    18    44   1
    48    21    45   1
    49    23    46   1
    50    24    47   1
    51    26    48   1
    52    28    49   1
    53    28    50   1
    54    29    51   1
    55    29    52   1
    56    30    53   1
    57    31    54   1
@<TRIPOS>SUBSTRUCTURE
     1  UI1      2

