@<TRIPOS>MOLECULE
1sqa_ligand_007
    54    57
SMALL
GAST_HUCK
****
This file was generated by PARSER (from files_GN.cpp)

@<TRIPOS>ATOM
      1 N1         18.5108   20.6440   35.1459 N.4         1 UI1       0.2289
      2 C2         18.3534   19.9787   33.8483 C.3         1 UI1      -0.0082
      3 C3         19.2388   18.7943   33.7681 C.ar        1 UI1      -0.0133
      4 C4         20.6215   18.9563   33.5307 C.ar        1 UI1      -0.0682
      5 C5         21.4766   17.8395   33.4646 C.ar        1 UI1      -0.0471
      6 C6         20.9772   16.5247   33.6333 C.ar        1 UI1       0.0594
      7 N7         21.7335   15.3746   33.6239 N.am        1 UI1      -0.2371
      8 C8         22.9124   15.1200   33.0589 C.2         1 UI1       0.2269
      9 O9         23.4581   15.9612   32.3525 O.2         1 UI1      -0.3740
     10 C10        23.5513   13.8881   33.2321 C.ar        1 UI1       0.0420
     11 C11        24.9587   13.7842   33.1056 C.ar        1 UI1      -0.0212
     12 C12        25.6399   12.5647   33.2977 C.ar        1 UI1       0.0814
     13 N13        26.9981   12.5918   33.1968 N.pl3       1 UI1      -0.2366
     14 C14        27.8379   12.8856   34.2179 C.ar        1 UI1       0.2162
     15 N15        29.1652   12.9739   33.9439 N.ar        1 UI1      -0.2483
     16 C16        30.0830   13.2805   34.8977 C.ar        1 UI1       0.0160
     17 C17        29.6621   13.5317   36.2135 C.ar        1 UI1      -0.0217
     18 C18        28.2870   13.4462   36.4878 C.ar        1 UI1       0.0160
     19 N19        27.4173   13.1263   35.4947 N.ar        1 UI1      -0.2483
     20 C20        24.9037   11.3790   33.5651 C.ar        1 UI1       0.0152
     21 C21        25.5275   10.1109   33.6960 C.ar        1 UI1      -0.0470
     22 C22        24.7911    8.9277   33.9824 C.ar        1 UI1       0.0254
     23 C23        23.3871    9.0603   34.1196 C.ar        1 UI1      -0.0575
     24 C24        22.7450   10.2986   33.9720 C.ar        1 UI1      -0.0567
     25 C25        23.4884   11.4646   33.6929 C.ar        1 UI1      -0.0208
     26 C26        22.8353   12.7081   33.5417 C.ar        1 UI1      -0.0476
     27 C27        25.4150    7.6719   34.1231 C.cat       1 UI1       0.2346
     28 N28        26.6765    7.5493   34.2798 N.pl3       1 UI1      -0.2724
     29 N29        24.7687    6.5675   34.1185 N.pl3       1 UI1      -0.2724
     30 C30        19.5967   16.3751   33.8984 C.ar        1 UI1      -0.0471
     31 C31        18.7370   17.4872   33.9557 C.ar        1 UI1      -0.0682
     32 H1         17.8974   21.4592   35.1681 H           1 UI1       0.2005
     33 H2         19.4811   20.9359   35.2971 H           1 UI1       0.2005
     34 H3         18.2187   20.0068   35.8929 H           1 UI1       0.2005
     35 H4         18.5877   20.6897   33.0522 H           1 UI1       0.0950
     36 H5         17.3017   19.6998   33.7369 H           1 UI1       0.0950
     37 H6         21.0142   19.8929   33.4099 H           1 UI1       0.0522
     38 H7         22.4733   18.0134   33.3238 H           1 UI1       0.0488
     39 H8         21.3398   14.6251   34.0998 H           1 UI1       0.2231
     40 H9         25.5047   14.6234   32.8832 H           1 UI1       0.0523
     41 H10        27.3825   12.5184   32.3094 H           1 UI1       0.2211
     42 H11        31.0744   13.3281   34.6553 H           1 UI1       0.0903
     43 H12        30.3337   13.7656   36.9473 H           1 UI1       0.0673
     44 H13        27.9422   13.6278   37.4307 H           1 UI1       0.0903
     45 H14        26.5390   10.0492   33.5643 H           1 UI1       0.0632
     46 H15        22.8002    8.2546   34.3425 H           1 UI1       0.0617
     47 H16        21.7271   10.3382   34.0735 H           1 UI1       0.0609
     48 H17        21.8153   12.7457   33.6249 H           1 UI1       0.0557
     49 H18        27.0565    6.7001   34.3764 H           1 UI1       0.3181
     50 H19        27.2260    8.3033   34.3122 H           1 UI1       0.3181
     51 H20        23.8382    6.5629   34.0333 H           1 UI1       0.3181
     52 H21        25.2221    5.7530   34.2165 H           1 UI1       0.3181
     53 H22        19.1999   15.4442   34.0458 H           1 UI1       0.0488
     54 H23        17.7426   17.3370   34.1447 H           1 UI1       0.0522
@<TRIPOS>BOND
     1     1     2   1
     2     2     3   1
     3     3     4  ar
     4     3    31  ar
     5     4     5  ar
     6     5     6  ar
     7     6     7   1
     8     6    30  ar
     9     7     8  am
    10     8     9   2
    11     8    10   1
    12    10    11  ar
    13    10    26  ar
    14    11    12  ar
    15    12    13   1
    16    12    20  ar
    17    13    14   1
    18    14    15  ar
    19    14    19  ar
    20    15    16  ar
    21    16    17  ar
    22    17    18  ar
    23    18    19  ar
    24    20    21  ar
    25    20    25  ar
    26    21    22  ar
    27    22    23  ar
    28    22    27   1
    29    23    24  ar
    30    24    25  ar
    31    25    26  ar
    32    27    28  ar
    33    27    29  ar
    34    30    31  ar
    35     1    32   1
    36     1    33   1
    37     1    34   1
    38     2    35   1
    39     2    36   1
    40     4    37   1
    41     5    38   1
    42     7    39   1
    43    11    40   1
    44    13    41   1
    45    16    42   1
    46    17    43   1
    47    18    44   1
    48    21    45   1
    49    23    46   1
    50    24    47   1
    51    26    48   1
    52    28    49   1
    53    28    50   1
    54    29    51   1
    55    29    52   1
    56    30    53   1
    57    31    54   1
@<TRIPOS>SUBSTRUCTURE
     1  UI1      2

