@<TRIPOS>MOLECULE
1sqa_ligand_014
    54    57
SMALL
GAST_HUCK
****
This file was generated by PARSER (from files_GN.cpp)

@<TRIPOS>ATOM
      1 N1         18.8242   19.9330   35.1703 N.4         1 UI1       0.2289
      2 C2         18.6854   19.2174   33.8960 C.3         1 UI1      -0.0082
      3 C3         19.6943   18.1344   33.7666 C.ar        1 UI1      -0.0133
      4 C4         20.9843   18.4059   33.2581 C.ar        1 UI1      -0.0682
      5 C5         21.9329   17.3738   33.1075 C.ar        1 UI1      -0.0471
      6 C6         21.6340   16.0376   33.4644 C.ar        1 UI1       0.0594
      7 N7         22.6419   15.1189   33.2677 N.am        1 UI1      -0.2371
      8 C8         22.7188   13.8149   33.5298 C.2         1 UI1       0.2269
      9 O9         21.7797   13.2202   34.0437 O.2         1 UI1      -0.3740
     10 C10        23.8871   13.0882   33.2492 C.ar        1 UI1       0.0420
     11 C11        24.6911   13.3596   32.1124 C.ar        1 UI1      -0.0212
     12 C12        25.8469   12.5966   31.8099 C.ar        1 UI1       0.0814
     13 N13        26.4912   12.9416   30.6541 N.pl3       1 UI1      -0.2366
     14 C14        27.0142   12.1159   29.7155 C.ar        1 UI1       0.2162
     15 N15        27.7277   12.6870   28.7072 N.ar        1 UI1      -0.2483
     16 C16        28.3372   11.9463   27.7460 C.ar        1 UI1       0.0160
     17 C17        28.2453   10.5424   27.7736 C.ar        1 UI1      -0.0217
     18 C18        27.4689    9.9650   28.7966 C.ar        1 UI1       0.0160
     19 N19        26.8883   10.7549   29.7383 N.ar        1 UI1      -0.2483
     20 C20        26.2688   11.5771   32.7114 C.ar        1 UI1       0.0152
     21 C21        27.4759   10.8443   32.5527 C.ar        1 UI1      -0.0470
     22 C22        27.8232    9.7443   33.3782 C.ar        1 UI1       0.0254
     23 C23        26.9748    9.4745   34.4769 C.ar        1 UI1      -0.0575
     24 C24        25.8275   10.2415   34.7211 C.ar        1 UI1      -0.0567
     25 C25        25.4565   11.2769   33.8386 C.ar        1 UI1      -0.0208
     26 C26        24.2820   12.0197   34.0871 C.ar        1 UI1      -0.0476
     27 C27        28.9281    8.9213   33.0886 C.cat       1 UI1       0.2346
     28 N28        29.6913    9.1079   32.0798 N.pl3       1 UI1      -0.2724
     29 N29        29.2331    7.8955   33.7880 N.pl3       1 UI1      -0.2724
     30 C30        20.3370   15.7749   33.9770 C.ar        1 UI1      -0.0471
     31 C31        19.3878   16.8049   34.1307 C.ar        1 UI1      -0.0682
     32 H1         18.1642   20.7140   35.1961 H           1 UI1       0.2005
     33 H2         19.7760   20.2939   35.2808 H           1 UI1       0.2005
     34 H3         18.6017   19.2996   35.9423 H           1 UI1       0.2005
     35 H4         18.7946   19.9336   33.0773 H           1 UI1       0.0950
     36 H5         17.6733   18.8138   33.8425 H           1 UI1       0.0950
     37 H6         21.2393   19.3590   32.9841 H           1 UI1       0.0522
     38 H7         22.8537   17.6148   32.7296 H           1 UI1       0.0488
     39 H8         23.4598   15.4960   32.9048 H           1 UI1       0.2231
     40 H9         24.4026   14.1006   31.4647 H           1 UI1       0.0523
     41 H10        26.5241   13.8900   30.4437 H           1 UI1       0.2211
     42 H11        28.8545   12.4230   26.9999 H           1 UI1       0.0903
     43 H12        28.7038    9.9712   27.0585 H           1 UI1       0.0673
     44 H13        27.3817    8.9477   28.8544 H           1 UI1       0.0903
     45 H14        28.1163   11.1138   31.8072 H           1 UI1       0.0632
     46 H15        27.1776    8.7043   35.1166 H           1 UI1       0.0617
     47 H16        25.2490   10.0094   35.5355 H           1 UI1       0.0609
     48 H17        23.7203   11.7902   34.9142 H           1 UI1       0.0557
     49 H18        30.3991    8.5195   31.9150 H           1 UI1       0.3181
     50 H19        29.5468    9.8187   31.4934 H           1 UI1       0.3181
     51 H20        28.7275    7.6596   34.5378 H           1 UI1       0.3181
     52 H21        29.9625    7.3640   33.5410 H           1 UI1       0.3181
     53 H22        20.0520   14.8348   34.2443 H           1 UI1       0.0488
     54 H23        18.4665   16.5753   34.5103 H           1 UI1       0.0522
@<TRIPOS>BOND
     1     1     2   1
     2     2     3   1
     3     3     4  ar
     4     3    31  ar
     5     4     5  ar
     6     5     6  ar
     7     6     7   1
     8     6    30  ar
     9     7     8  am
    10     8     9   2
    11     8    10   1
    12    10    11  ar
    13    10    26  ar
    14    11    12  ar
    15    12    13   1
    16    12    20  ar
    17    13    14   1
    18    14    15  ar
    19    14    19  ar
    20    15    16  ar
    21    16    17  ar
    22    17    18  ar
    23    18    19  ar
    24    20    21  ar
    25    20    25  ar
    26    21    22  ar
    27    22    23  ar
    28    22    27   1
    29    23    24  ar
    30    24    25  ar
    31    25    26  ar
    32    27    28  ar
    33    27    29  ar
    34    30    31  ar
    35     1    32   1
    36     1    33   1
    37     1    34   1
    38     2    35   1
    39     2    36   1
    40     4    37   1
    41     5    38   1
    42     7    39   1
    43    11    40   1
    44    13    41   1
    45    16    42   1
    46    17    43   1
    47    18    44   1
    48    21    45   1
    49    23    46   1
    50    24    47   1
    51    26    48   1
    52    28    49   1
    53    28    50   1
    54    29    51   1
    55    29    52   1
    56    30    53   1
    57    31    54   1
@<TRIPOS>SUBSTRUCTURE
     1  UI1      2

