@<TRIPOS>MOLECULE
1sqa_ligand_031
    54    57
SMALL
GAST_HUCK
****
This file was generated by PARSER (from files_GN.cpp)

@<TRIPOS>ATOM
      1 N1          9.8347   20.6902   26.7935 N.4         1 UI1       0.2289
      2 C2          9.8732   20.7692   28.2579 C.3         1 UI1      -0.0082
      3 C3         11.1944   20.5728   28.9210 C.ar        1 UI1      -0.0133
      4 C4         12.3768   20.3125   28.1951 C.ar        1 UI1      -0.0682
      5 C5         13.5773   19.9992   28.8674 C.ar        1 UI1      -0.0471
      6 C6         13.6533   19.9877   30.2792 C.ar        1 UI1       0.0594
      7 N7         14.7589   19.5818   30.9957 N.am        1 UI1      -0.2371
      8 C8         15.6078   18.5785   30.7495 C.2         1 UI1       0.2269
      9 O9         15.3760   17.8227   29.8091 O.2         1 UI1      -0.3740
     10 C10        16.7460   18.3404   31.5540 C.ar        1 UI1       0.0420
     11 C11        17.0433   19.1406   32.6884 C.ar        1 UI1      -0.0212
     12 C12        18.2070   18.9460   33.4696 C.ar        1 UI1       0.0814
     13 N13        18.4275   19.7845   34.5209 N.pl3       1 UI1      -0.2366
     14 C14        18.6664   21.1081   34.4064 C.ar        1 UI1       0.2162
     15 N15        18.8604   21.8439   35.5309 N.ar        1 UI1      -0.2483
     16 C16        19.1474   23.1679   35.4801 C.ar        1 UI1       0.0160
     17 C17        19.2688   23.8124   34.2371 C.ar        1 UI1      -0.0217
     18 C18        19.0685   23.0400   33.0849 C.ar        1 UI1       0.0160
     19 N19        18.7562   21.7275   33.1914 N.ar        1 UI1      -0.2483
     20 C20        19.1027   17.8977   33.1513 C.ar        1 UI1       0.0152
     21 C21        20.2811   17.6727   33.9045 C.ar        1 UI1      -0.0470
     22 C22        21.1874   16.6248   33.6058 C.ar        1 UI1       0.0254
     23 C23        20.8559   15.7854   32.5085 C.ar        1 UI1      -0.0575
     24 C24        19.6991   16.0018   31.7347 C.ar        1 UI1      -0.0567
     25 C25        18.8209   17.0632   32.0383 C.ar        1 UI1      -0.0208
     26 C26        17.6707   17.3101   31.2502 C.ar        1 UI1      -0.0476
     27 C27        22.3624   16.4280   34.3595 C.cat       1 UI1       0.2346
     28 N28        22.6321   17.0934   35.4207 N.pl3       1 UI1      -0.2724
     29 N29        23.2533   15.5734   34.0402 N.pl3       1 UI1      -0.2724
     30 C30        12.5091   20.4150   30.9973 C.ar        1 UI1      -0.0471
     31 C31        11.2920   20.6301   30.3291 C.ar        1 UI1      -0.0682
     32 H1          8.9118   20.9074   26.4542 H           1 UI1       0.2005
     33 H2         10.0963   19.7398   26.4893 H           1 UI1       0.2005
     34 H3         10.5077   21.3647   26.3999 H           1 UI1       0.2005
     35 H4          9.1721   20.0259   28.6425 H           1 UI1       0.0950
     36 H5          9.4905   21.7576   28.5165 H           1 UI1       0.0950
     37 H6         12.3761   20.2931   27.1713 H           1 UI1       0.0522
     38 H7         14.4021   19.7679   28.3075 H           1 UI1       0.0488
     39 H8         14.8637   20.0223   31.8466 H           1 UI1       0.2231
     40 H9         16.4065   19.8886   32.9719 H           1 UI1       0.0523
     41 H10        18.5584   19.3842   35.3976 H           1 UI1       0.2211
     42 H11        19.2843   23.6922   36.3426 H           1 UI1       0.0903
     43 H12        19.5202   24.7988   34.1741 H           1 UI1       0.0673
     44 H13        19.1674   23.4566   32.1627 H           1 UI1       0.0903
     45 H14        20.4896   18.3015   34.6805 H           1 UI1       0.0632
     46 H15        21.4485   14.9919   32.2531 H           1 UI1       0.0617
     47 H16        19.5005   15.3700   30.9544 H           1 UI1       0.0609
     48 H17        17.5151   16.7146   30.4309 H           1 UI1       0.0557
     49 H18        23.4205   16.9228   35.8915 H           1 UI1       0.3181
     50 H19        22.0416   17.7422   35.7388 H           1 UI1       0.3181
     51 H20        23.1552   15.0486   33.2718 H           1 UI1       0.3181
     52 H21        24.0210   15.4723   34.5674 H           1 UI1       0.3181
     53 H22        12.5440   20.5031   32.0189 H           1 UI1       0.0488
     54 H23        10.4556   20.8027   30.9040 H           1 UI1       0.0522
@<TRIPOS>BOND
     1     1     2   1
     2     2     3   1
     3     3     4  ar
     4     3    31  ar
     5     4     5  ar
     6     5     6  ar
     7     6     7   1
     8     6    30  ar
     9     7     8  am
    10     8     9   2
    11     8    10   1
    12    10    11  ar
    13    10    26  ar
    14    11    12  ar
    15    12    13   1
    16    12    20  ar
    17    13    14   1
    18    14    15  ar
    19    14    19  ar
    20    15    16  ar
    21    16    17  ar
    22    17    18  ar
    23    18    19  ar
    24    20    21  ar
    25    20    25  ar
    26    21    22  ar
    27    22    23  ar
    28    22    27   1
    29    23    24  ar
    30    24    25  ar
    31    25    26  ar
    32    27    28  ar
    33    27    29  ar
    34    30    31  ar
    35     1    32   1
    36     1    33   1
    37     1    34   1
    38     2    35   1
    39     2    36   1
    40     4    37   1
    41     5    38   1
    42     7    39   1
    43    11    40   1
    44    13    41   1
    45    16    42   1
    46    17    43   1
    47    18    44   1
    48    21    45   1
    49    23    46   1
    50    24    47   1
    51    26    48   1
    52    28    49   1
    53    28    50   1
    54    29    51   1
    55    29    52   1
    56    30    53   1
    57    31    54   1
@<TRIPOS>SUBSTRUCTURE
     1  UI1      2

