@<TRIPOS>MOLECULE
1u1b_ligand_068
    74    78
SMALL
GAST_HUCK
****
This file was generated by PARSER (from files_GN.cpp)

@<TRIPOS>ATOM
      1 PA        -31.4316  -31.9037   16.1040 P.3         1 PAX       0.2972
      2 O1A       -30.2118  -31.1627   15.9035 O.co2       1 PAX      -0.6127
      3 O2A       -31.3322  -33.0090   15.1843 O.co2       1 PAX      -0.6127
      4 O5        -31.4338  -32.4637   17.5596 O.3         1 PAX      -0.2476
      5 PB        -32.8261  -29.6849   16.4010 P.3         1 PAX       0.2974
      6 O1B       -34.2238  -29.3706   16.2416 O.co2       1 PAX      -0.6127
      7 O2B       -32.5862  -29.6712   17.8238 O.co2       1 PAX      -0.6127
      8 O3A       -32.7027  -31.0845   15.7269 O.3         1 PAX      -0.1319
      9 PG        -33.9448  -35.9595   14.1914 P.3         1 PAX       0.2013
     10 O1G       -35.3036  -35.5049   14.0114 O.co2       1 PAX      -0.5537
     11 O2G       -33.0375  -35.1096   13.4513 O.co2       1 PAX      -0.5537
     12 O3G       -33.8310  -37.2741   13.6108 O.co2       1 PAX      -0.5537
     13 N9A       -34.9145  -35.9707   19.9395 N.pl3       1 PAX      -0.1919
     14 C4A       -34.4256  -35.5059   21.1019 C.ar        1 PAX       0.1613
     15 N3A       -33.2012  -35.0227   21.4466 N.ar        1 PAX      -0.2714
     16 C2A       -32.9641  -34.6051   22.7193 C.ar        1 PAX       0.0533
     17 N1A       -33.9518  -34.6644   23.6541 N.ar        1 PAX      -0.2698
     18 C6A       -35.1900  -35.1460   23.3632 C.ar        1 PAX       0.1298
     19 N6A       -36.1271  -35.1917   24.3235 N.pl3       1 PAX      -0.3152
     20 C5A       -35.4430  -35.5873   22.0517 C.ar        1 PAX       0.1045
     21 N7A       -36.5284  -36.1118   21.4731 N.2         1 PAX      -0.2958
     22 C8A       -36.1924  -36.3402   20.1921 C.2         1 PAX       0.1123
     23 C5        -32.5836  -33.1937   18.0472 C.3         1 PAX       0.1131
     24 C4        -32.6907  -34.6813   17.5660 C.3         1 PAX       0.1235
     25 O4        -32.9083  -35.5412   18.6972 O.3         1 PAX      -0.3360
     26 C1        -34.2375  -36.0903   18.6706 C.3         1 PAX       0.2013
     27 C2        -34.9805  -35.4010   17.5062 C.3         1 PAX       0.1432
     28 O2        -35.9118  -36.2686   16.8528 O.3         1 PAX      -0.3832
     29 C3        -33.8405  -34.9637   16.5641 C.3         1 PAX       0.1487
     30 O3        -33.4622  -36.0447   15.6662 O.3         1 PAX      -0.2674
     31 O5        -32.2848  -25.2192   19.2637 O.3         1 PAX      -0.2734
     32 C5        -31.5046  -26.1511   18.4820 C.3         1 PAX       0.1074
     33 C4        -32.2588  -26.6365   17.2104 C.3         1 PAX       0.1209
     34 O4        -32.7099  -25.5047   16.4491 O.3         1 PAX      -0.3391
     35 C1        -32.0848  -25.5251   15.1506 C.3         1 PAX       0.1760
     36 C2        -30.8881  -26.4913   15.2596 C.3         1 PAX       0.0362
     37 C3        -31.3836  -27.5314   16.2800 C.3         1 PAX       0.1284
     38 O3        -32.0841  -28.5850   15.5732 O.3         1 PAX      -0.2441
     39 PD        -33.2681  -25.7897   20.3306 P.3         1 PAX       0.2008
     40 O1D       -32.5553  -26.3337   21.4628 O.co2       1 PAX      -0.5537
     41 O2D       -34.2026  -26.7622   19.8184 O.co2       1 PAX      -0.5537
     42 O3D       -34.0431  -24.6816   20.8265 O.co2       1 PAX      -0.5537
     43 N1T       -31.7202  -24.1964   14.6664 N.am        1 PAX      -0.1736
     44 C6T       -31.7760  -23.9327   13.3242 C.2         1 PAX       0.0524
     45 C2T       -31.3276  -23.2039   15.4915 C.2         1 PAX       0.3265
     46 O2T       -31.2001  -23.3342   16.6990 O.2         1 PAX      -0.3843
     47 N3T       -31.0535  -21.9934   15.0079 N.am        1 PAX      -0.1859
     48 C4T       -31.1468  -21.7231   13.7069 C.2         1 PAX       0.1930
     49 O4T       -30.8713  -20.5862   13.3472 O.2         1 PAX      -0.4079
     50 C5T       -31.5004  -22.7098   12.8137 C.2         1 PAX       0.0225
     51 CM5       -31.5847  -22.4310   11.3799 C.3         1 PAX      -0.0437
     52 H1        -32.0441  -34.2495   22.9768 H           1 PAX       0.0996
     53 H2        -37.0137  -35.5356   24.1281 H           1 PAX       0.1820
     54 H3        -35.9161  -34.8727   25.2164 H           1 PAX       0.1820
     55 H4        -36.8406  -36.7404   19.5187 H           1 PAX       0.1349
     56 H5        -33.5195  -32.6507   17.8645 H           1 PAX       0.0648
     57 H6        -32.4510  -33.2005   19.1347 H           1 PAX       0.0648
     58 H7        -31.7313  -34.9662   17.1238 H           1 PAX       0.0654
     59 H8        -34.1306  -37.1551   18.4453 H           1 PAX       0.0996
     60 H9        -35.5180  -34.5167   17.8658 H           1 PAX       0.0680
     61 H10       -36.1774  -36.9458   17.5101 H           1 PAX       0.2101
     62 H11       -34.1126  -34.0405   16.0384 H           1 PAX       0.0704
     63 H12       -31.1469  -27.0068   19.0680 H           1 PAX       0.0639
     64 H13       -30.6161  -25.6002   18.1683 H           1 PAX       0.0639
     65 H14       -33.1466  -27.1743   17.5363 H           1 PAX       0.0653
     66 H15       -32.8235  -25.9839   14.4766 H           1 PAX       0.0959
     67 H16       -30.0075  -25.9657   15.6459 H           1 PAX       0.0348
     68 H17       -30.6376  -26.9339   14.2918 H           1 PAX       0.0348
     69 H18       -30.5201  -27.9603   16.8036 H           1 PAX       0.0686
     70 H19       -32.0226  -24.6637   12.6961 H           1 PAX       0.1011
     71 H20       -30.8044  -21.2866   15.6249 H           1 PAX       0.2259
     72 H21       -31.8837  -23.3034   10.7936 H           1 PAX       0.0296
     73 H22       -30.6134  -22.0948   11.0090 H           1 PAX       0.0296
     74 H23       -32.3182  -21.6409   11.1991 H           1 PAX       0.0296
@<TRIPOS>BOND
     1     1     2  ar
     2     1     3  ar
     3     1     4   1
     4     8     1   1
     5     4    23   1
     6     5     6  ar
     7     5     7  ar
     8     5     8   1
     9    38     5   1
    10     9    10  ar
    11     9    11  ar
    12     9    12  ar
    13    30     9   1
    14    13    14   1
    15    13    22   1
    16    26    13   1
    17    14    15  ar
    18    14    20  ar
    19    15    16  ar
    20    16    17  ar
    21    18    17  ar
    22    18    19   1
    23    20    18  ar
    24    21    20   1
    25    22    21   2
    26    23    24   1
    27    24    25   1
    28    24    29   1
    29    25    26   1
    30    27    26   1
    31    27    28   1
    32    29    27   1
    33    29    30   1
    34    32    31   1
    35    31    39   1
    36    33    32   1
    37    33    34   1
    38    37    33   1
    39    35    34   1
    40    36    35   1
    41    35    43   1
    42    37    36   1
    43    37    38   1
    44    39    40  ar
    45    39    41  ar
    46    39    42  ar
    47    43    44   1
    48    43    45  am
    49    44    50   2
    50    45    46   2
    51    45    47  am
    52    47    48  am
    53    48    49   2
    54    48    50   1
    55    50    51   1
    56    16    52   1
    57    19    53   1
    58    19    54   1
    59    22    55   1
    60    23    56   1
    61    23    57   1
    62    24    58   1
    63    26    59   1
    64    27    60   1
    65    28    61   1
    66    29    62   1
    67    32    63   1
    68    32    64   1
    69    33    65   1
    70    35    66   1
    71    36    67   1
    72    36    68   1
    73    37    69   1
    74    44    70   1
    75    47    71   1
    76    51    72   1
    77    51    73   1
    78    51    74   1
@<TRIPOS>SUBSTRUCTURE
     1  PAX     14

