@<TRIPOS>MOLECULE
1u1b_ligand_025
    74    78
SMALL
GAST_HUCK
****
This file was generated by PARSER (from files_GN.cpp)

@<TRIPOS>ATOM
      1 PA        -29.9212  -32.2287   14.3197 P.3         1 PAX       0.2972
      2 O1A       -30.4911  -33.1184   15.2990 O.co2       1 PAX      -0.6127
      3 O2A       -29.1710  -31.2584   15.0792 O.co2       1 PAX      -0.6127
      4 O5        -29.1286  -33.1407   13.3397 O.3         1 PAX      -0.2476
      5 PB        -30.7716  -30.5592   12.4817 P.3         1 PAX       0.2974
      6 O1B       -29.8358  -31.0156   11.4820 O.co2       1 PAX      -0.6127
      7 O2B       -31.9932  -30.2680   11.7790 O.co2       1 PAX      -0.6127
      8 O3A       -31.1389  -31.6105   13.5701 O.3         1 PAX      -0.1319
      9 PG        -26.8332  -37.2299   14.5352 P.3         1 PAX       0.2013
     10 O1G       -28.2335  -37.5689   14.6057 O.co2       1 PAX      -0.5537
     11 O2G       -26.3724  -37.3586   13.1731 O.co2       1 PAX      -0.5537
     12 O3G       -26.1337  -38.2063   15.3332 O.co2       1 PAX      -0.5537
     13 N9A       -26.6361  -32.1146   17.7277 N.pl3       1 PAX      -0.1919
     14 C4A       -27.7226  -31.7032   18.4123 C.ar        1 PAX       0.1613
     15 N3A       -29.0284  -32.0750   18.3591 N.ar        1 PAX      -0.2714
     16 C2A       -29.9356  -31.4984   19.1955 C.ar        1 PAX       0.0533
     17 N1A       -29.5406  -30.5480   20.0897 N.ar        1 PAX      -0.2698
     18 C6A       -28.2485  -30.1333   20.1781 C.ar        1 PAX       0.1298
     19 N6A       -27.9012  -29.2069   21.0879 N.pl3       1 PAX      -0.3152
     20 C5A       -27.3063  -30.7252   19.3152 C.ar        1 PAX       0.1045
     21 N7A       -25.9942  -30.5271   19.1614 N.2         1 PAX      -0.2958
     22 C8A       -25.6021  -31.3782   18.1971 C.2         1 PAX       0.1123
     23 C5        -27.6943  -33.0154   13.2155 C.3         1 PAX       0.1131
     24 C4        -26.8523  -33.5013   14.4274 C.3         1 PAX       0.1235
     25 O4        -26.7274  -32.4524   15.3981 O.3         1 PAX      -0.3360
     26 C1        -26.5145  -33.0767   16.6640 C.3         1 PAX       0.2013
     27 C2        -27.4845  -34.2729   16.6277 C.3         1 PAX       0.1432
     28 O2        -27.1902  -35.2383   17.6377 O.3         1 PAX      -0.3832
     29 C3        -27.3774  -34.7701   15.1690 C.3         1 PAX       0.1487
     30 O3        -26.4123  -35.8472   15.1061 O.3         1 PAX      -0.2674
     31 O5        -26.5342  -28.9253   10.4467 O.3         1 PAX      -0.2734
     32 C5        -27.7175  -28.1901   10.8018 C.3         1 PAX       0.1074
     33 C4        -28.2151  -28.4181   12.2588 C.3         1 PAX       0.1209
     34 O4        -27.5442  -27.5123   13.1617 O.3         1 PAX      -0.3391
     35 C1        -28.5144  -27.0097   14.0948 C.3         1 PAX       0.1760
     36 C2        -29.8006  -26.9204   13.2566 C.3         1 PAX       0.0362
     37 C3        -29.7503  -28.1989   12.4241 C.3         1 PAX       0.1284
     38 O3        -30.3569  -29.2457   13.2088 O.3         1 PAX      -0.2441
     39 PD        -25.1463  -28.4082   10.8920 P.3         1 PAX       0.2008
     40 O1D       -24.5665  -29.2628   11.9046 O.co2       1 PAX      -0.5537
     41 O2D       -25.0724  -27.0101   11.2342 O.co2       1 PAX      -0.5537
     42 O3D       -24.3319  -28.5806    9.7013 O.co2       1 PAX      -0.5537
     43 N1T       -28.2131  -25.7240   14.7008 N.am        1 PAX      -0.1736
     44 C6T       -27.4783  -24.7897   14.0245 C.2         1 PAX       0.0524
     45 C2T       -28.7721  -25.3666   15.8758 C.2         1 PAX       0.3265
     46 O2T       -29.4784  -26.1093   16.5439 O.2         1 PAX      -0.3843
     47 N3T       -28.5920  -24.1429   16.3604 N.am        1 PAX      -0.1859
     48 C4T       -27.8819  -23.2280   15.7059 C.2         1 PAX       0.1930
     49 O4T       -27.8002  -22.1184   16.2152 O.2         1 PAX      -0.4079
     50 C5T       -27.2976  -23.5334   14.4957 C.2         1 PAX       0.0225
     51 CM5       -26.5432  -22.5327   13.7437 C.3         1 PAX      -0.0437
     52 H1        -30.9155  -31.7910   19.1658 H           1 PAX       0.0996
     53 H2        -26.9739  -28.9418   21.2048 H           1 PAX       0.1820
     54 H3        -28.5846  -28.8373   21.6711 H           1 PAX       0.1820
     55 H4        -24.6392  -31.4390   17.8597 H           1 PAX       0.1349
     56 H5        -27.3998  -31.9911   12.9601 H           1 PAX       0.0648
     57 H6        -27.4174  -33.6394   12.3650 H           1 PAX       0.0648
     58 H7        -25.8460  -33.6957   14.0464 H           1 PAX       0.0654
     59 H8        -25.4933  -33.4770   16.6800 H           1 PAX       0.0996
     60 H9        -28.5095  -33.9392   16.7858 H           1 PAX       0.0680
     61 H10       -26.3547  -35.6843   17.3893 H           1 PAX       0.2101
     62 H11       -28.3755  -35.0489   14.8066 H           1 PAX       0.0704
     63 H12       -28.4814  -28.5491   10.1133 H           1 PAX       0.0639
     64 H13       -27.6047  -27.1244   10.6008 H           1 PAX       0.0639
     65 H14       -27.9575  -29.4393   12.5493 H           1 PAX       0.0653
     66 H15       -28.6219  -27.7745   14.8754 H           1 PAX       0.0959
     67 H16       -29.7617  -26.0490   12.5959 H           1 PAX       0.0348
     68 H17       -30.6990  -26.8620   13.8762 H           1 PAX       0.0348
     69 H18       -30.2842  -28.0298   11.4833 H           1 PAX       0.0686
     70 H19       -27.0873  -25.0255   13.1408 H           1 PAX       0.1011
     71 H20       -29.0070  -23.9027   17.2051 H           1 PAX       0.2259
     72 H21       -26.1497  -22.9197   12.7997 H           1 PAX       0.0296
     73 H22       -25.6994  -22.1835   14.3414 H           1 PAX       0.0296
     74 H23       -27.1881  -21.6828   13.5120 H           1 PAX       0.0296
@<TRIPOS>BOND
     1     1     2  ar
     2     1     3  ar
     3     1     4   1
     4     8     1   1
     5     4    23   1
     6     5     6  ar
     7     5     7  ar
     8     5     8   1
     9    38     5   1
    10     9    10  ar
    11     9    11  ar
    12     9    12  ar
    13    30     9   1
    14    13    14   1
    15    13    22   1
    16    26    13   1
    17    14    15  ar
    18    14    20  ar
    19    15    16  ar
    20    16    17  ar
    21    18    17  ar
    22    18    19   1
    23    20    18  ar
    24    21    20   1
    25    22    21   2
    26    23    24   1
    27    24    25   1
    28    24    29   1
    29    25    26   1
    30    27    26   1
    31    27    28   1
    32    29    27   1
    33    29    30   1
    34    32    31   1
    35    31    39   1
    36    33    32   1
    37    33    34   1
    38    37    33   1
    39    35    34   1
    40    36    35   1
    41    35    43   1
    42    37    36   1
    43    37    38   1
    44    39    40  ar
    45    39    41  ar
    46    39    42  ar
    47    43    44   1
    48    43    45  am
    49    44    50   2
    50    45    46   2
    51    45    47  am
    52    47    48  am
    53    48    49   2
    54    48    50   1
    55    50    51   1
    56    16    52   1
    57    19    53   1
    58    19    54   1
    59    22    55   1
    60    23    56   1
    61    23    57   1
    62    24    58   1
    63    26    59   1
    64    27    60   1
    65    28    61   1
    66    29    62   1
    67    32    63   1
    68    32    64   1
    69    33    65   1
    70    35    66   1
    71    36    67   1
    72    36    68   1
    73    37    69   1
    74    44    70   1
    75    47    71   1
    76    51    72   1
    77    51    73   1
    78    51    74   1
@<TRIPOS>SUBSTRUCTURE
     1  PAX     14

