@<TRIPOS>MOLECULE
1u1b_ligand_022
    74    78
SMALL
GAST_HUCK
****
This file was generated by PARSER (from files_GN.cpp)

@<TRIPOS>ATOM
      1 PA        -34.2228  -31.4131   17.4903 P.3         1 PAX       0.2972
      2 O1A       -35.0994  -31.3722   16.3472 O.co2       1 PAX      -0.6127
      3 O2A       -34.3005  -32.7245   18.0883 O.co2       1 PAX      -0.6127
      4 O5        -32.7842  -31.2098   16.9106 O.3         1 PAX      -0.2476
      5 PB        -35.7091  -30.3281   19.3982 P.3         1 PAX       0.2974
      6 O1B       -35.8358  -29.0446   20.0410 O.co2       1 PAX      -0.6127
      7 O2B       -36.9684  -30.6029   18.7501 O.co2       1 PAX      -0.6127
      8 O3A       -34.5311  -30.1744   18.4025 O.3         1 PAX      -0.1319
      9 PG        -27.9469  -32.9765   17.4541 P.3         1 PAX       0.2013
     10 O1G       -28.8600  -33.8614   18.1380 O.co2       1 PAX      -0.5537
     11 O2G       -28.1226  -33.0982   16.0261 O.co2       1 PAX      -0.5537
     12 O3G       -26.6059  -33.4283   17.7359 O.co2       1 PAX      -0.5537
     13 N9A       -30.0617  -27.3570   18.0055 N.pl3       1 PAX      -0.1919
     14 C4A       -29.7637  -26.2748   17.2669 C.ar        1 PAX       0.1613
     15 N3A       -29.0473  -26.1327   16.1216 N.ar        1 PAX      -0.2714
     16 C2A       -28.9003  -24.9066   15.5571 C.ar        1 PAX       0.0533
     17 N1A       -29.4720  -23.8137   16.1370 N.ar        1 PAX      -0.2698
     18 C6A       -30.2033  -23.9047   17.2834 C.ar        1 PAX       0.1298
     19 N6A       -30.7558  -22.8070   17.8234 N.pl3       1 PAX      -0.3152
     20 C5A       -30.3644  -25.1737   17.8701 C.ar        1 PAX       0.1045
     21 N7A       -31.0374  -25.5942   18.9511 N.2         1 PAX      -0.2958
     22 C8A       -30.8498  -26.9266   19.0154 C.2         1 PAX       0.1123
     23 C5        -31.7019  -31.6716   17.7486 C.3         1 PAX       0.1131
     24 C4        -30.4475  -30.8556   17.3877 C.3         1 PAX       0.1235
     25 O4        -30.8183  -29.4670   17.3285 O.3         1 PAX      -0.3360
     26 C1        -29.6766  -28.7071   17.7141 C.3         1 PAX       0.2013
     27 C2        -29.0906  -29.5189   18.8852 C.3         1 PAX       0.1432
     28 O2        -27.7351  -29.1645   19.1794 O.3         1 PAX      -0.3832
     29 C3        -29.2839  -30.9813   18.4205 C.3         1 PAX       0.1487
     30 O3        -28.0329  -31.4793   17.8803 O.3         1 PAX      -0.2674
     31 O5        -36.8006  -32.1635   25.0168 O.3         1 PAX      -0.2734
     32 C5        -37.2455  -32.0286   23.6460 C.3         1 PAX       0.1074
     33 C4        -35.9884  -32.0389   22.7457 C.3         1 PAX       0.1209
     34 O4        -35.1776  -33.1731   23.0909 O.3         1 PAX      -0.3391
     35 C1        -34.9123  -33.9331   21.9021 C.3         1 PAX       0.1760
     36 C2        -36.0387  -33.5748   20.9178 C.3         1 PAX       0.0362
     37 C3        -36.2762  -32.0872   21.2246 C.3         1 PAX       0.1284
     38 O3        -35.2729  -31.3261   20.5043 O.3         1 PAX      -0.2441
     39 PD        -37.6948  -31.5216   26.1204 P.3         1 PAX       0.2008
     40 O1D       -36.9938  -31.6427   27.3807 O.co2       1 PAX      -0.5537
     41 O2D       -39.0204  -32.0846   26.2734 O.co2       1 PAX      -0.5537
     42 O3D       -37.7970  -30.1060   25.8450 O.co2       1 PAX      -0.5537
     43 N1T       -34.7931  -35.3645   22.1100 N.am        1 PAX      -0.1736
     44 C6T       -34.0012  -36.0886   21.2637 C.2         1 PAX       0.0524
     45 C2T       -35.4856  -36.0240   23.0611 C.2         1 PAX       0.3265
     46 O2T       -36.2659  -35.4882   23.8380 O.2         1 PAX      -0.3843
     47 N3T       -35.3477  -37.3406   23.1897 N.am        1 PAX      -0.1859
     48 C4T       -34.5441  -38.0427   22.3952 C.2         1 PAX       0.1930
     49 O4T       -34.4506  -39.2403   22.6258 O.2         1 PAX      -0.4079
     50 C5T       -33.8578  -37.4282   21.3754 C.2         1 PAX       0.0225
     51 CM5       -33.0343  -38.1974   20.4458 C.3         1 PAX      -0.0437
     52 H1        -28.3648  -24.8036   14.6952 H           1 PAX       0.0996
     53 H2        -31.2743  -22.8770   18.6387 H           1 PAX       0.1820
     54 H3        -30.6330  -21.9450   17.4016 H           1 PAX       0.1820
     55 H4        -31.2721  -27.5185   19.7323 H           1 PAX       0.1349
     56 H5        -31.5221  -32.7272   17.5546 H           1 PAX       0.0648
     57 H6        -31.8879  -31.5435   18.8195 H           1 PAX       0.0648
     58 H7        -30.1032  -31.1461   16.3905 H           1 PAX       0.0654
     59 H8        -28.9634  -28.7233   16.8814 H           1 PAX       0.0996
     60 H9        -29.6816  -29.3547   19.7886 H           1 PAX       0.0680
     61 H10       -27.3585  -28.8529   18.3192 H           1 PAX       0.2101
     62 H11       -29.5659  -31.5774   19.2976 H           1 PAX       0.0704
     63 H12       -37.8031  -31.0972   23.4734 H           1 PAX       0.0639
     64 H13       -37.8977  -32.8696   23.3949 H           1 PAX       0.0639
     65 H14       -35.4291  -31.1341   22.9686 H           1 PAX       0.0653
     66 H15       -33.9625  -33.5336   21.5233 H           1 PAX       0.0959
     67 H16       -36.9415  -34.1619   21.1216 H           1 PAX       0.0348
     68 H17       -35.7256  -33.7448   19.8806 H           1 PAX       0.0348
     69 H18       -37.3108  -31.8093   20.9975 H           1 PAX       0.0686
     70 H19       -33.5247  -35.6200   20.5268 H           1 PAX       0.1011
     71 H20       -35.8347  -37.8035   23.8942 H           1 PAX       0.2259
     72 H21       -32.5683  -37.5766   19.6740 H           1 PAX       0.0296
     73 H22       -33.6484  -38.9506   19.9421 H           1 PAX       0.0296
     74 H23       -32.2347  -38.7048   20.9926 H           1 PAX       0.0296
@<TRIPOS>BOND
     1     1     2  ar
     2     1     3  ar
     3     1     4   1
     4     8     1   1
     5     4    23   1
     6     5     6  ar
     7     5     7  ar
     8     5     8   1
     9    38     5   1
    10     9    10  ar
    11     9    11  ar
    12     9    12  ar
    13    30     9   1
    14    13    14   1
    15    13    22   1
    16    26    13   1
    17    14    15  ar
    18    14    20  ar
    19    15    16  ar
    20    16    17  ar
    21    18    17  ar
    22    18    19   1
    23    20    18  ar
    24    21    20   1
    25    22    21   2
    26    23    24   1
    27    24    25   1
    28    24    29   1
    29    25    26   1
    30    27    26   1
    31    27    28   1
    32    29    27   1
    33    29    30   1
    34    32    31   1
    35    31    39   1
    36    33    32   1
    37    33    34   1
    38    37    33   1
    39    35    34   1
    40    36    35   1
    41    35    43   1
    42    37    36   1
    43    37    38   1
    44    39    40  ar
    45    39    41  ar
    46    39    42  ar
    47    43    44   1
    48    43    45  am
    49    44    50   2
    50    45    46   2
    51    45    47  am
    52    47    48  am
    53    48    49   2
    54    48    50   1
    55    50    51   1
    56    16    52   1
    57    19    53   1
    58    19    54   1
    59    22    55   1
    60    23    56   1
    61    23    57   1
    62    24    58   1
    63    26    59   1
    64    27    60   1
    65    28    61   1
    66    29    62   1
    67    32    63   1
    68    32    64   1
    69    33    65   1
    70    35    66   1
    71    36    67   1
    72    36    68   1
    73    37    69   1
    74    44    70   1
    75    47    71   1
    76    51    72   1
    77    51    73   1
    78    51    74   1
@<TRIPOS>SUBSTRUCTURE
     1  PAX     14

