@<TRIPOS>MOLECULE
1u1b_ligand_018
    74    78
SMALL
GAST_HUCK
****
This file was generated by PARSER (from files_GN.cpp)

@<TRIPOS>ATOM
      1 PA        -33.8895  -31.5307   18.1390 P.3         1 PAX       0.2972
      2 O1A       -34.1228  -30.0916   18.1758 O.co2       1 PAX      -0.6127
      3 O2A       -34.9618  -32.0318   17.2951 O.co2       1 PAX      -0.6127
      4 O5        -32.5394  -31.9098   17.4657 O.3         1 PAX      -0.2476
      5 PB        -34.4588  -33.5628   19.7496 P.3         1 PAX       0.2974
      6 O1B       -33.3666  -34.5025   19.6246 O.co2       1 PAX      -0.6127
      7 O2B       -34.7710  -33.6440   21.1578 O.co2       1 PAX      -0.6127
      8 O3A       -34.0638  -32.0673   19.5914 O.3         1 PAX      -0.1319
      9 PG        -27.6097  -32.9894   17.7987 P.3         1 PAX       0.2013
     10 O1G       -28.6397  -33.8697   18.3126 O.co2       1 PAX      -0.5537
     11 O2G       -27.5713  -33.1509   16.3686 O.co2       1 PAX      -0.5537
     12 O3G       -26.3339  -33.4279   18.3074 O.co2       1 PAX      -0.5537
     13 N9A       -30.0665  -27.4885   18.1491 N.pl3       1 PAX      -0.1919
     14 C4A       -29.7908  -26.4192   17.3809 C.ar        1 PAX       0.1613
     15 N3A       -29.0858  -26.2979   16.2272 N.ar        1 PAX      -0.2714
     16 C2A       -28.9485  -25.0788   15.6377 C.ar        1 PAX       0.0533
     17 N1A       -29.5185  -23.9774   16.2020 N.ar        1 PAX      -0.2698
     18 C6A       -30.2394  -24.0493   17.3561 C.ar        1 PAX       0.1298
     19 N6A       -30.7833  -22.9351   17.8718 N.pl3       1 PAX      -0.3152
     20 C5A       -30.3877  -25.3047   17.9687 C.ar        1 PAX       0.1045
     21 N7A       -31.0288  -25.7087   19.0762 N.2         1 PAX      -0.2958
     22 C8A       -30.8305  -27.0354   19.1699 C.2         1 PAX       0.1123
     23 C5        -31.3707  -32.0068   18.3039 C.3         1 PAX       0.1131
     24 C4        -30.2599  -31.0553   17.8066 C.3         1 PAX       0.1235
     25 O4        -30.7664  -29.7131   17.7206 O.3         1 PAX      -0.3360
     26 C1        -29.6472  -28.8439   17.9135 C.3         1 PAX       0.2013
     27 C2        -28.8910  -29.5167   19.0777 C.3         1 PAX       0.1432
     28 O2        -27.5425  -29.0583   19.2180 O.3         1 PAX      -0.3832
     29 C3        -29.0133  -31.0198   18.7423 C.3         1 PAX       0.1487
     30 O3        -27.7870  -31.4763   18.1187 O.3         1 PAX      -0.2674
     31 O5        -35.5969  -35.2364   15.0124 O.3         1 PAX      -0.2734
     32 C5        -36.3123  -34.0197   15.3437 C.3         1 PAX       0.1074
     33 C4        -36.8046  -34.0435   16.8216 C.3         1 PAX       0.1209
     34 O4        -38.0453  -34.7662   16.8930 O.3         1 PAX      -0.3391
     35 C1        -37.9532  -35.7411   17.9422 C.3         1 PAX       0.1760
     36 C2        -36.4495  -36.0573   18.0543 C.3         1 PAX       0.0362
     37 C3        -35.8087  -34.6804   17.8347 C.3         1 PAX       0.1284
     38 O3        -35.8105  -33.9520   19.0821 O.3         1 PAX      -0.2441
     39 PD        -34.1129  -35.1143   14.5401 P.3         1 PAX       0.2008
     40 O1D       -33.3765  -34.0781   15.2142 O.co2       1 PAX      -0.5537
     41 O2D       -34.0669  -34.8948   13.1190 O.co2       1 PAX      -0.5537
     42 O3D       -33.4446  -36.3547   14.8495 O.co2       1 PAX      -0.5537
     43 N1T       -38.7924  -36.9041   17.6818 N.am        1 PAX      -0.1736
     44 C6T       -38.7287  -37.5295   16.4669 C.2         1 PAX       0.0524
     45 C2T       -39.6388  -37.3983   18.6117 C.2         1 PAX       0.3265
     46 O2T       -39.7467  -36.9437   19.7395 O.2         1 PAX      -0.3843
     47 N3T       -40.3995  -38.4513   18.3260 N.am        1 PAX      -0.1859
     48 C4T       -40.3624  -39.0386   17.1368 C.2         1 PAX       0.1930
     49 O4T       -41.1033  -39.9971   16.9664 O.2         1 PAX      -0.4079
     50 C5T       -39.5178  -38.5840   16.1520 C.2         1 PAX       0.0225
     51 CM5       -39.4936  -39.1960   14.8268 C.3         1 PAX      -0.0437
     52 H1        -28.4171  -24.9900   14.7716 H           1 PAX       0.0996
     53 H2        -31.2963  -22.9833   18.6943 H           1 PAX       0.1820
     54 H3        -30.6593  -22.0761   17.4319 H           1 PAX       0.1820
     55 H4        -31.2139  -27.6127   19.9206 H           1 PAX       0.1349
     56 H5        -31.0222  -33.0308   18.2002 H           1 PAX       0.0648
     57 H6        -31.5465  -31.8450   19.3716 H           1 PAX       0.0648
     58 H7        -29.9660  -31.3663   16.7985 H           1 PAX       0.0654
     59 H8        -29.0208  -28.8835   17.0135 H           1 PAX       0.0996
     60 H9        -29.4088  -29.3174   20.0211 H           1 PAX       0.0680
     61 H10       -27.2692  -28.7913   18.3168 H           1 PAX       0.2101
     62 H11       -29.1768  -31.5584   19.6852 H           1 PAX       0.0704
     63 H12       -37.1746  -33.9591   14.6726 H           1 PAX       0.0639
     64 H13       -35.7344  -33.1009   15.1785 H           1 PAX       0.0639
     65 H14       -37.0297  -33.0171   17.1144 H           1 PAX       0.0653
     66 H15       -38.2635  -35.2272   18.8610 H           1 PAX       0.0959
     67 H16       -36.1502  -36.7521   17.2647 H           1 PAX       0.0348
     68 H17       -36.1913  -36.4868   19.0271 H           1 PAX       0.0348
     69 H18       -34.8130  -34.8108   17.4081 H           1 PAX       0.0686
     70 H19       -38.0892  -37.1925   15.7810 H           1 PAX       0.1011
     71 H20       -40.9966  -38.7969   19.0063 H           1 PAX       0.2259
     72 H21       -38.7918  -38.7095   14.1452 H           1 PAX       0.0296
     73 H22       -40.4862  -39.1377   14.3755 H           1 PAX       0.0296
     74 H23       -39.2071  -40.2458   14.9073 H           1 PAX       0.0296
@<TRIPOS>BOND
     1     1     2  ar
     2     1     3  ar
     3     1     4   1
     4     8     1   1
     5     4    23   1
     6     5     6  ar
     7     5     7  ar
     8     5     8   1
     9    38     5   1
    10     9    10  ar
    11     9    11  ar
    12     9    12  ar
    13    30     9   1
    14    13    14   1
    15    13    22   1
    16    26    13   1
    17    14    15  ar
    18    14    20  ar
    19    15    16  ar
    20    16    17  ar
    21    18    17  ar
    22    18    19   1
    23    20    18  ar
    24    21    20   1
    25    22    21   2
    26    23    24   1
    27    24    25   1
    28    24    29   1
    29    25    26   1
    30    27    26   1
    31    27    28   1
    32    29    27   1
    33    29    30   1
    34    32    31   1
    35    31    39   1
    36    33    32   1
    37    33    34   1
    38    37    33   1
    39    35    34   1
    40    36    35   1
    41    35    43   1
    42    37    36   1
    43    37    38   1
    44    39    40  ar
    45    39    41  ar
    46    39    42  ar
    47    43    44   1
    48    43    45  am
    49    44    50   2
    50    45    46   2
    51    45    47  am
    52    47    48  am
    53    48    49   2
    54    48    50   1
    55    50    51   1
    56    16    52   1
    57    19    53   1
    58    19    54   1
    59    22    55   1
    60    23    56   1
    61    23    57   1
    62    24    58   1
    63    26    59   1
    64    27    60   1
    65    28    61   1
    66    29    62   1
    67    32    63   1
    68    32    64   1
    69    33    65   1
    70    35    66   1
    71    36    67   1
    72    36    68   1
    73    37    69   1
    74    44    70   1
    75    47    71   1
    76    51    72   1
    77    51    73   1
    78    51    74   1
@<TRIPOS>SUBSTRUCTURE
     1  PAX     14

