@<TRIPOS>MOLECULE
1u1b_ligand_072
    74    78
SMALL
GAST_HUCK
****
This file was generated by PARSER (from files_GN.cpp)

@<TRIPOS>ATOM
      1 PA        -27.5301  -31.4333   12.1288 P.3         1 PAX       0.2972
      2 O1A       -26.9628  -30.5618   11.1301 O.co2       1 PAX      -0.6127
      3 O2A       -26.4643  -31.8971   12.9809 O.co2       1 PAX      -0.6127
      4 O5        -28.6387  -30.6547   12.9012 O.3         1 PAX      -0.2476
      5 PB        -28.8048  -33.7440   12.2066 P.3         1 PAX       0.2974
      6 O1B       -29.9582  -34.1660   11.4437 O.co2       1 PAX      -0.6127
      7 O2B       -27.9016  -34.8717   12.1768 O.co2       1 PAX      -0.6127
      8 O3A       -28.2143  -32.5877   11.3437 O.3         1 PAX      -0.1319
      9 PG        -30.4114  -27.3857   11.7695 P.3         1 PAX       0.2013
     10 O1G       -31.7570  -27.3890   11.2589 O.co2       1 PAX      -0.5537
     11 O2G       -29.6656  -26.4507   10.9645 O.co2       1 PAX      -0.5537
     12 O3G       -29.9111  -28.7201   11.5429 O.co2       1 PAX      -0.5537
     13 N9A       -30.3805  -27.9203   17.7511 N.pl3       1 PAX      -0.1919
     14 C4A       -31.0541  -27.0410   18.5139 C.ar        1 PAX       0.1613
     15 N3A       -31.8716  -26.0039   18.1813 N.ar        1 PAX      -0.2714
     16 C2A       -32.4363  -25.2534   19.1612 C.ar        1 PAX       0.0533
     17 N1A       -32.1838  -25.5221   20.4715 N.ar        1 PAX      -0.2698
     18 C6A       -31.3849  -26.5612   20.8542 C.ar        1 PAX       0.1298
     19 N6A       -31.1420  -26.7781   22.1574 N.pl3       1 PAX      -0.3152
     20 C5A       -30.7998  -27.3455   19.8482 C.ar        1 PAX       0.1045
     21 N7A       -29.9791  -28.4091   19.8924 N.2         1 PAX      -0.2958
     22 C8A       -29.7329  -28.7470   18.6153 C.2         1 PAX       0.1123
     23 C5        -28.2206  -29.7143   13.9091 C.3         1 PAX       0.1131
     24 C4        -29.4727  -28.9329   14.4093 C.3         1 PAX       0.1235
     25 O4        -29.6771  -29.1425   15.8157 O.3         1 PAX      -0.3360
     26 C1        -30.3933  -28.0010   16.3140 C.3         1 PAX       0.2013
     27 C2        -29.6999  -26.8284   15.5916 C.3         1 PAX       0.1432
     28 O2        -30.4746  -25.6304   15.5861 O.3         1 PAX      -0.3832
     29 C3        -29.4450  -27.3884   14.1716 C.3         1 PAX       0.1487
     30 O3        -30.4961  -26.9595   13.2684 O.3         1 PAX      -0.2674
     31 O5        -31.7439  -35.6232   16.0066 O.3         1 PAX      -0.2734
     32 C5        -30.8282  -34.7975   16.7598 C.3         1 PAX       0.1074
     33 C4        -30.1015  -33.7214   15.9023 C.3         1 PAX       0.1209
     34 O4        -29.1624  -33.0299   16.7503 O.3         1 PAX      -0.3391
     35 C1        -27.8281  -33.2246   16.2519 C.3         1 PAX       0.1760
     36 C2        -27.9110  -34.4424   15.3099 C.3         1 PAX       0.0362
     37 C3        -29.3125  -34.2999   14.6953 C.3         1 PAX       0.1284
     38 O3        -29.3441  -33.3354   13.6172 O.3         1 PAX      -0.2441
     39 PD        -33.2587  -35.2652   16.0078 P.3         1 PAX       0.2008
     40 O1D       -33.9328  -36.4763   15.6157 O.co2       1 PAX      -0.5537
     41 O2D       -33.6151  -34.2237   15.0742 O.co2       1 PAX      -0.5537
     42 O3D       -33.7323  -34.9441   17.3311 O.co2       1 PAX      -0.5537
     43 N1T       -26.7833  -33.3975   17.2506 N.am        1 PAX      -0.1736
     44 C6T       -25.4841  -33.1842   16.8773 C.2         1 PAX       0.0524
     45 C2T       -27.0213  -33.8058   18.5131 C.2         1 PAX       0.3265
     46 O2T       -28.1410  -34.0516   18.9411 O.2         1 PAX      -0.3843
     47 N3T       -26.0099  -33.9982   19.3545 N.am        1 PAX      -0.1859
     48 C4T       -24.7438  -33.7791   19.0025 C.2         1 PAX       0.1930
     49 O4T       -23.8888  -33.9938   19.8509 O.2         1 PAX      -0.4079
     50 C5T       -24.4459  -33.3534   17.7280 C.2         1 PAX       0.0225
     51 CM5       -23.0866  -33.0798   17.2703 C.3         1 PAX      -0.0437
     52 H1        -33.0422  -24.4704   18.9136 H           1 PAX       0.0996
     53 H2        -30.5663  -27.5129   22.4238 H           1 PAX       0.1820
     54 H3        -31.5102  -26.1912   22.8359 H           1 PAX       0.1820
     55 H4        -29.1318  -29.5337   18.3525 H           1 PAX       0.1349
     56 H5        -27.4785  -29.0206   13.4950 H           1 PAX       0.0648
     57 H6        -27.7571  -30.2423   14.7477 H           1 PAX       0.0648
     58 H7        -30.3670  -29.3401   13.9255 H           1 PAX       0.0654
     59 H8        -31.4394  -28.0788   15.9901 H           1 PAX       0.0996
     60 H9        -28.7430  -26.6175   16.0874 H           1 PAX       0.0680
     61 H10       -30.4275  -25.2866   16.5055 H           1 PAX       0.2101
     62 H11       -28.4681  -27.0111   13.8385 H           1 PAX       0.0704
     63 H12       -30.0716  -35.4756   17.1624 H           1 PAX       0.0639
     64 H13       -31.3093  -34.3245   17.6219 H           1 PAX       0.0639
     65 H14       -30.8476  -32.9943   15.5662 H           1 PAX       0.0653
     66 H15       -27.6189  -32.3250   15.6620 H           1 PAX       0.0959
     67 H16       -27.8469  -35.3743   15.8828 H           1 PAX       0.0348
     68 H17       -27.1169  -34.4322   14.5592 H           1 PAX       0.0348
     69 H18       -29.7155  -35.2698   14.3828 H           1 PAX       0.0686
     70 H19       -25.2844  -32.8884   15.9427 H           1 PAX       0.1011
     71 H20       -26.2005  -34.3121   20.2527 H           1 PAX       0.2259
     72 H21       -22.8472  -33.7223   16.4181 H           1 PAX       0.0296
     73 H22       -22.3314  -33.2516   18.0418 H           1 PAX       0.0296
     74 H23       -23.0087  -32.0356   16.9551 H           1 PAX       0.0296
@<TRIPOS>BOND
     1     1     2  ar
     2     1     3  ar
     3     1     4   1
     4     8     1   1
     5     4    23   1
     6     5     6  ar
     7     5     7  ar
     8     5     8   1
     9    38     5   1
    10     9    10  ar
    11     9    11  ar
    12     9    12  ar
    13    30     9   1
    14    13    14   1
    15    13    22   1
    16    26    13   1
    17    14    15  ar
    18    14    20  ar
    19    15    16  ar
    20    16    17  ar
    21    18    17  ar
    22    18    19   1
    23    20    18  ar
    24    21    20   1
    25    22    21   2
    26    23    24   1
    27    24    25   1
    28    24    29   1
    29    25    26   1
    30    27    26   1
    31    27    28   1
    32    29    27   1
    33    29    30   1
    34    32    31   1
    35    31    39   1
    36    33    32   1
    37    33    34   1
    38    37    33   1
    39    35    34   1
    40    36    35   1
    41    35    43   1
    42    37    36   1
    43    37    38   1
    44    39    40  ar
    45    39    41  ar
    46    39    42  ar
    47    43    44   1
    48    43    45  am
    49    44    50   2
    50    45    46   2
    51    45    47  am
    52    47    48  am
    53    48    49   2
    54    48    50   1
    55    50    51   1
    56    16    52   1
    57    19    53   1
    58    19    54   1
    59    22    55   1
    60    23    56   1
    61    23    57   1
    62    24    58   1
    63    26    59   1
    64    27    60   1
    65    28    61   1
    66    29    62   1
    67    32    63   1
    68    32    64   1
    69    33    65   1
    70    35    66   1
    71    36    67   1
    72    36    68   1
    73    37    69   1
    74    44    70   1
    75    47    71   1
    76    51    72   1
    77    51    73   1
    78    51    74   1
@<TRIPOS>SUBSTRUCTURE
     1  PAX     14

