@<TRIPOS>MOLECULE
1u1b_ligand_000
    74    78
SMALL
GAST_HUCK
****
This file was generated by PARSER (from files_GN.cpp)

@<TRIPOS>ATOM
      1 PA        -29.6595  -29.5284   18.4416 P.3         1 PAX       0.2972
      2 O1A       -29.4111  -29.8529   17.0583 O.co2       1 PAX      -0.6127
      3 O2A       -28.6312  -28.6278   18.9004 O.co2       1 PAX      -0.6127
      4 O5        -31.0514  -28.8399   18.5522 O.3         1 PAX      -0.2476
      5 PB        -28.6586  -31.8528   19.2942 P.3         1 PAX       0.2974
      6 O1B       -27.3305  -31.4274   18.9273 O.co2       1 PAX      -0.6127
      7 O2B       -28.4769  -32.2924   20.6538 O.co2       1 PAX      -0.6127
      8 O3A       -29.7474  -30.7415   19.4227 O.3         1 PAX      -0.1319
      9 PG        -33.0298  -25.7963   20.4876 P.3         1 PAX       0.2013
     10 O1G       -33.8033  -26.7615   19.7479 O.co2       1 PAX      -0.5537
     11 O2G       -32.1854  -26.4827   21.4324 O.co2       1 PAX      -0.5537
     12 O3G       -33.9620  -25.0224   21.2664 O.co2       1 PAX      -0.5537
     13 N9A       -28.7856  -23.8805   16.4851 N.pl3       1 PAX      -0.1919
     14 C4A       -28.2156  -24.4355   15.3981 C.ar        1 PAX       0.1613
     15 N3A       -28.1545  -25.7202   14.9599 N.ar        1 PAX      -0.2714
     16 C2A       -27.5071  -26.0159   13.7994 C.ar        1 PAX       0.0533
     17 N1A       -26.9278  -25.0253   13.0661 N.ar        1 PAX      -0.2698
     18 C6A       -26.9593  -23.7218   13.4604 C.ar        1 PAX       0.1298
     19 N6A       -26.3726  -22.7810   12.7003 N.pl3       1 PAX      -0.3152
     20 C5A       -27.6142  -23.4121   14.6672 C.ar        1 PAX       0.1045
     21 N7A       -27.8080  -22.2564   15.3153 N.2         1 PAX      -0.2958
     22 C8A       -28.5118  -22.5577   16.4198 C.2         1 PAX       0.1123
     23 C5        -31.3475  -27.7079   17.7040 C.3         1 PAX       0.1131
     24 C4        -30.7621  -26.3561   18.2250 C.3         1 PAX       0.1235
     25 O4        -29.6905  -25.9334   17.3692 O.3         1 PAX      -0.3360
     26 C1        -29.5358  -24.5181   17.5385 C.3         1 PAX       0.2013
     27 C2        -30.9880  -24.0074   17.6390 C.3         1 PAX       0.1432
     28 O2        -31.0642  -22.7724   18.3532 O.3         1 PAX      -0.3832
     29 C3        -31.7659  -25.1670   18.3026 C.3         1 PAX       0.1487
     30 O3        -32.1693  -24.8030   19.6461 O.3         1 PAX      -0.2674
     31 O5        -31.8066  -35.4039   15.2238 O.3         1 PAX      -0.2734
     32 C5        -30.9326  -34.2703   15.4322 C.3         1 PAX       0.1074
     33 C4        -30.1082  -34.4627   16.7411 C.3         1 PAX       0.1209
     34 O4        -29.1708  -35.5452   16.5564 O.3         1 PAX      -0.3391
     35 C1        -27.8135  -35.0473   16.6151 C.3         1 PAX       0.1760
     36 C2        -27.9480  -33.5122   16.4722 C.3         1 PAX       0.0362
     37 C3        -29.2912  -33.2110   17.1568 C.3         1 PAX       0.1284
     38 O3        -29.1817  -33.1553   18.6019 O.3         1 PAX      -0.2441
     39 PD        -33.3421  -35.1819   15.3838 P.3         1 PAX       0.2008
     40 O1D       -33.6926  -34.5835   16.6471 O.co2       1 PAX      -0.5537
     41 O2D       -33.9619  -36.4802   15.3183 O.co2       1 PAX      -0.5537
     42 O3D       -33.8591  -34.3935   14.2941 O.co2       1 PAX      -0.5537
     43 N1T       -26.8607  -35.6197   15.6683 N.am        1 PAX      -0.1736
     44 C6T       -27.2505  -36.5589   14.7515 C.2         1 PAX       0.0524
     45 C2T       -25.5634  -35.2394   15.6756 C.2         1 PAX       0.3265
     46 O2T       -25.0832  -34.4578   16.4852 O.2         1 PAX      -0.3843
     47 N3T       -24.7198  -35.7193   14.7712 N.am        1 PAX      -0.1859
     48 C4T       -25.1037  -36.6013   13.8572 C.2         1 PAX       0.1930
     49 O4T       -24.2551  -36.9712   13.0575 O.2         1 PAX      -0.4079
     50 C5T       -26.3939  -37.0764   13.8382 C.2         1 PAX       0.0225
     51 CM5       -26.8003  -38.0982   12.8804 C.3         1 PAX      -0.0437
     52 H1        -27.4584  -26.9833   13.4772 H           1 PAX       0.0996
     53 H2        -26.3671  -21.8495   12.9835 H           1 PAX       0.1820
     54 H3        -25.9576  -23.0276   11.8538 H           1 PAX       0.1820
     55 H4        -28.8052  -21.8602   17.1049 H           1 PAX       0.1349
     56 H5        -32.4369  -27.6615   17.6887 H           1 PAX       0.0648
     57 H6        -31.0558  -27.8832   16.6617 H           1 PAX       0.0648
     58 H7        -30.3390  -26.5159   19.2187 H           1 PAX       0.0654
     59 H8        -29.0124  -24.3465   18.4861 H           1 PAX       0.0996
     60 H9        -31.3818  -23.8416   16.6320 H           1 PAX       0.0680
     61 H10       -32.0078  -22.5067   18.3212 H           1 PAX       0.2101
     62 H11       -32.6621  -25.3486   17.6970 H           1 PAX       0.0704
     63 H12       -31.4547  -33.3050   15.4530 H           1 PAX       0.0639
     64 H13       -30.2494  -34.2389   14.5810 H           1 PAX       0.0639
     65 H14       -30.8055  -34.7320   17.5419 H           1 PAX       0.0653
     66 H15       -27.4554  -35.2690   17.6268 H           1 PAX       0.0959
     67 H16       -27.9892  -33.2211   15.4137 H           1 PAX       0.0348
     68 H17       -27.1151  -32.9891   16.9500 H           1 PAX       0.0348
     69 H18       -29.7563  -32.3088   16.7525 H           1 PAX       0.0686
     70 H19       -28.1870  -36.8931   14.7591 H           1 PAX       0.1011
     71 H20       -23.8019  -35.4072   14.7748 H           1 PAX       0.2259
     72 H21       -27.8382  -38.4095   13.0075 H           1 PAX       0.0296
     73 H22       -26.1688  -38.9798   12.9950 H           1 PAX       0.0296
     74 H23       -26.6834  -37.7166   11.8655 H           1 PAX       0.0296
@<TRIPOS>BOND
     1     1     2  ar
     2     1     3  ar
     3     1     4   1
     4     8     1   1
     5     4    23   1
     6     5     6  ar
     7     5     7  ar
     8     5     8   1
     9    38     5   1
    10     9    10  ar
    11     9    11  ar
    12     9    12  ar
    13    30     9   1
    14    13    14   1
    15    13    22   1
    16    26    13   1
    17    14    15  ar
    18    14    20  ar
    19    15    16  ar
    20    16    17  ar
    21    18    17  ar
    22    18    19   1
    23    20    18  ar
    24    21    20   1
    25    22    21   2
    26    23    24   1
    27    24    25   1
    28    24    29   1
    29    25    26   1
    30    27    26   1
    31    27    28   1
    32    29    27   1
    33    29    30   1
    34    32    31   1
    35    31    39   1
    36    33    32   1
    37    33    34   1
    38    37    33   1
    39    35    34   1
    40    36    35   1
    41    35    43   1
    42    37    36   1
    43    37    38   1
    44    39    40  ar
    45    39    41  ar
    46    39    42  ar
    47    43    44   1
    48    43    45  am
    49    44    50   2
    50    45    46   2
    51    45    47  am
    52    47    48  am
    53    48    49   2
    54    48    50   1
    55    50    51   1
    56    16    52   1
    57    19    53   1
    58    19    54   1
    59    22    55   1
    60    23    56   1
    61    23    57   1
    62    24    58   1
    63    26    59   1
    64    27    60   1
    65    28    61   1
    66    29    62   1
    67    32    63   1
    68    32    64   1
    69    33    65   1
    70    35    66   1
    71    36    67   1
    72    36    68   1
    73    37    69   1
    74    44    70   1
    75    47    71   1
    76    51    72   1
    77    51    73   1
    78    51    74   1
@<TRIPOS>SUBSTRUCTURE
     1  PAX     14

