@<TRIPOS>MOLECULE
1u1b_ligand_042
    74    78
SMALL
GAST_HUCK
****
This file was generated by PARSER (from files_GN.cpp)

@<TRIPOS>ATOM
      1 PA        -29.0919  -31.1496   18.6391 P.3         1 PAX       0.2972
      2 O1A       -29.8450  -30.8470   17.4366 O.co2       1 PAX      -0.6127
      3 O2A       -29.5848  -32.4550   19.0132 O.co2       1 PAX      -0.6127
      4 O5        -27.5457  -31.2991   18.4380 O.3         1 PAX      -0.2476
      5 PB        -28.7120  -28.9017   19.9794 P.3         1 PAX       0.2974
      6 O1B       -28.8768  -28.4800   21.3528 O.co2       1 PAX      -0.6127
      7 O2B       -27.2912  -29.1189   19.8599 O.co2       1 PAX      -0.6127
      8 O3A       -29.4994  -30.2347   19.8224 O.3         1 PAX      -0.1319
      9 PG        -29.7323  -34.3478   16.1317 P.3         1 PAX       0.2013
     10 O1G       -30.4829  -33.3059   15.4758 O.co2       1 PAX      -0.5537
     11 O2G       -30.1654  -35.5964   15.5474 O.co2       1 PAX      -0.5537
     12 O3G       -30.0954  -34.3228   17.5283 O.co2       1 PAX      -0.5537
     13 N9A       -23.6854  -34.6783   17.1146 N.pl3       1 PAX      -0.1919
     14 C4A       -22.5411  -34.8558   16.4298 C.ar        1 PAX       0.1613
     15 N3A       -22.2660  -34.7545   15.1010 N.ar        1 PAX      -0.2714
     16 C2A       -20.9962  -34.9558   14.6592 C.ar        1 PAX       0.0533
     17 N1A       -20.0022  -35.2360   15.5481 N.ar        1 PAX      -0.2698
     18 C6A       -20.2340  -35.3330   16.8843 C.ar        1 PAX       0.1298
     19 N6A       -19.2176  -35.5609   17.7316 N.pl3       1 PAX      -0.3152
     20 C5A       -21.5441  -35.1570   17.3505 C.ar        1 PAX       0.1045
     21 N7A       -22.0886  -35.1869   18.5763 N.2         1 PAX      -0.2958
     22 C8A       -23.3916  -34.8844   18.4187 C.2         1 PAX       0.1123
     23 C5        -26.9720  -31.2050   17.1129 C.3         1 PAX       0.1131
     24 C4        -26.4829  -32.5594   16.5184 C.3         1 PAX       0.1235
     25 O4        -25.1366  -32.8530   16.9247 O.3         1 PAX      -0.3360
     26 C1        -24.9286  -34.2271   16.5619 C.3         1 PAX       0.2013
     27 C2        -26.2090  -34.9289   17.0563 C.3         1 PAX       0.1432
     28 O2        -26.4472  -36.1540   16.3631 O.3         1 PAX      -0.3832
     29 C3        -27.2951  -33.8378   16.8722 C.3         1 PAX       0.1487
     30 O3        -28.2305  -34.1067   15.7984 O.3         1 PAX      -0.2674
     31 O5        -31.3976  -28.9549   15.8681 O.3         1 PAX      -0.2734
     32 C5        -31.4050  -27.5180   16.0864 C.3         1 PAX       0.1074
     33 C4        -30.2091  -27.1232   16.9996 C.3         1 PAX       0.1209
     34 O4        -30.0524  -25.6861   17.0033 O.3         1 PAX      -0.3391
     35 C1        -30.5185  -25.1462   18.2576 C.3         1 PAX       0.1760
     36 C2        -31.0896  -26.3480   19.0586 C.3         1 PAX       0.0362
     37 C3        -30.3530  -27.5644   18.4767 C.3         1 PAX       0.1284
     38 O3        -29.0174  -27.7095   19.0201 O.3         1 PAX      -0.2441
     39 PD        -32.6112  -29.7681   16.3939 P.3         1 PAX       0.2008
     40 O1D       -32.6045  -29.8193   17.8371 O.co2       1 PAX      -0.5537
     41 O2D       -32.4620  -31.1177   15.9098 O.co2       1 PAX      -0.5537
     42 O3D       -33.8724  -29.2562   15.9115 O.co2       1 PAX      -0.5537
     43 N1T       -31.4328  -24.0142   18.1432 N.am        1 PAX      -0.1736
     44 C6T       -31.7521  -23.4768   16.9274 C.2         1 PAX       0.0524
     45 C2T       -31.9468  -23.4340   19.2512 C.2         1 PAX       0.3265
     46 O2T       -31.7055  -23.8014   20.3907 O.2         1 PAX      -0.3843
     47 N3T       -32.7547  -22.3867   19.1433 N.am        1 PAX      -0.1859
     48 C4T       -33.0758  -21.8678   17.9658 C.2         1 PAX       0.1930
     49 O4T       -33.8452  -20.9169   17.9636 O.2         1 PAX      -0.4079
     50 C5T       -32.5431  -22.3825   16.8043 C.2         1 PAX       0.0225
     51 CM5       -32.7948  -21.7480   15.5124 C.3         1 PAX      -0.0437
     52 H1        -20.7849  -34.8855   13.6662 H           1 PAX       0.0996
     53 H2        -19.3766  -35.5610   18.6834 H           1 PAX       0.1820
     54 H3        -18.3168  -35.6685   17.3914 H           1 PAX       0.1820
     55 H4        -24.0559  -34.8031   19.1966 H           1 PAX       0.1349
     56 H5        -26.0977  -30.5564   17.2083 H           1 PAX       0.0648
     57 H6        -27.6309  -30.7183   16.3828 H           1 PAX       0.0648
     58 H7        -26.4657  -32.4340   15.4242 H           1 PAX       0.0654
     59 H8        -24.8949  -34.3079   15.4636 H           1 PAX       0.0996
     60 H9        -26.1143  -35.1579   18.1274 H           1 PAX       0.0680
     61 H10       -25.7344  -36.7364   16.7053 H           1 PAX       0.2101
     62 H11       -27.7741  -33.7011   17.8469 H           1 PAX       0.0704
     63 H12       -32.3379  -27.1030   16.5012 H           1 PAX       0.0639
     64 H13       -31.2607  -27.0451   15.1069 H           1 PAX       0.0639
     65 H14       -29.3014  -27.5600   16.5632 H           1 PAX       0.0653
     66 H15       -29.6176  -24.7940   18.7690 H           1 PAX       0.0959
     67 H16       -32.1667  -26.4446   18.8863 H           1 PAX       0.0348
     68 H17       -30.9186  -26.2527   20.1331 H           1 PAX       0.0348
     69 H18       -30.9630  -28.4729   18.5705 H           1 PAX       0.0686
     70 H19       -31.3709  -23.8742   16.1004 H           1 PAX       0.1011
     71 H20       -33.1330  -21.9960   19.9458 H           1 PAX       0.2259
     72 H21       -32.2878  -22.2530   14.6857 H           1 PAX       0.0296
     73 H22       -32.4412  -20.7155   15.5395 H           1 PAX       0.0296
     74 H23       -33.8658  -21.7458   15.2996 H           1 PAX       0.0296
@<TRIPOS>BOND
     1     1     2  ar
     2     1     3  ar
     3     1     4   1
     4     8     1   1
     5     4    23   1
     6     5     6  ar
     7     5     7  ar
     8     5     8   1
     9    38     5   1
    10     9    10  ar
    11     9    11  ar
    12     9    12  ar
    13    30     9   1
    14    13    14   1
    15    13    22   1
    16    26    13   1
    17    14    15  ar
    18    14    20  ar
    19    15    16  ar
    20    16    17  ar
    21    18    17  ar
    22    18    19   1
    23    20    18  ar
    24    21    20   1
    25    22    21   2
    26    23    24   1
    27    24    25   1
    28    24    29   1
    29    25    26   1
    30    27    26   1
    31    27    28   1
    32    29    27   1
    33    29    30   1
    34    32    31   1
    35    31    39   1
    36    33    32   1
    37    33    34   1
    38    37    33   1
    39    35    34   1
    40    36    35   1
    41    35    43   1
    42    37    36   1
    43    37    38   1
    44    39    40  ar
    45    39    41  ar
    46    39    42  ar
    47    43    44   1
    48    43    45  am
    49    44    50   2
    50    45    46   2
    51    45    47  am
    52    47    48  am
    53    48    49   2
    54    48    50   1
    55    50    51   1
    56    16    52   1
    57    19    53   1
    58    19    54   1
    59    22    55   1
    60    23    56   1
    61    23    57   1
    62    24    58   1
    63    26    59   1
    64    27    60   1
    65    28    61   1
    66    29    62   1
    67    32    63   1
    68    32    64   1
    69    33    65   1
    70    35    66   1
    71    36    67   1
    72    36    68   1
    73    37    69   1
    74    44    70   1
    75    47    71   1
    76    51    72   1
    77    51    73   1
    78    51    74   1
@<TRIPOS>SUBSTRUCTURE
     1  PAX     14

