@<TRIPOS>MOLECULE
1u1b_ligand_059
    74    78
SMALL
GAST_HUCK
****
This file was generated by PARSER (from files_GN.cpp)

@<TRIPOS>ATOM
      1 PA        -29.4052  -31.5699   18.4974 P.3         1 PAX       0.2972
      2 O1A       -29.8275  -30.5773   17.5404 O.co2       1 PAX      -0.6127
      3 O2A       -29.7803  -31.0625   19.7944 O.co2       1 PAX      -0.6127
      4 O5        -30.0654  -32.9671   18.2669 O.3         1 PAX      -0.2476
      5 PB        -27.1057  -32.8220   18.9610 P.3         1 PAX       0.2974
      6 O1B       -25.7262  -32.4748   19.1663 O.co2       1 PAX      -0.6127
      7 O2B       -27.5925  -33.2454   20.2590 O.co2       1 PAX      -0.6127
      8 O3A       -27.8499  -31.5749   18.3999 O.3         1 PAX      -0.1319
      9 PG        -31.0949  -34.7962   13.6603 P.3         1 PAX       0.2013
     10 O1G       -30.1699  -33.7772   14.0982 O.co2       1 PAX      -0.5537
     11 O2G       -30.3468  -35.7741   12.9153 O.co2       1 PAX      -0.5537
     12 O3G       -32.0514  -34.2152   12.7494 O.co2       1 PAX      -0.5537
     13 N9A       -33.7379  -36.6630   18.8176 N.pl3       1 PAX      -0.1919
     14 C4A       -35.0325  -36.4554   19.1377 C.ar        1 PAX       0.1613
     15 N3A       -36.0274  -35.7355   18.5487 N.ar        1 PAX      -0.2714
     16 C2A       -37.2628  -35.6808   19.1171 C.ar        1 PAX       0.0533
     17 N1A       -37.5180  -36.3448   20.2795 N.ar        1 PAX      -0.2698
     18 C6A       -36.5604  -37.0863   20.9059 C.ar        1 PAX       0.1298
     19 N6A       -36.8403  -37.7324   22.0490 N.pl3       1 PAX      -0.3152
     20 C5A       -35.2822  -37.1445   20.3260 C.ar        1 PAX       0.1045
     21 N7A       -34.1593  -37.7664   20.7107 N.2         1 PAX      -0.2958
     22 C8A       -33.2357  -37.4632   19.7871 C.2         1 PAX       0.1123
     23 C5        -31.1738  -33.0345   17.3507 C.3         1 PAX       0.1131
     24 C4        -31.4764  -34.5190   17.0382 C.3         1 PAX       0.1235
     25 O4        -32.0445  -35.1550   18.1919 O.3         1 PAX      -0.3360
     26 C1        -32.9295  -36.1797   17.7251 C.3         1 PAX       0.2013
     27 C2        -33.6121  -35.5090   16.5182 C.3         1 PAX       0.1432
     28 O2        -34.2312  -36.4674   15.6626 O.3         1 PAX      -0.3832
     29 C3        -32.4610  -34.7278   15.8506 C.3         1 PAX       0.1487
     30 O3        -31.8516  -35.5271   14.8086 O.3         1 PAX      -0.2674
     31 O5        -24.3535  -32.7353   14.9842 O.3         1 PAX      -0.2734
     32 C5        -25.6314  -32.2231   15.4184 C.3         1 PAX       0.1074
     33 C4        -26.5985  -33.4033   15.6752 C.3         1 PAX       0.1209
     34 O4        -26.5866  -34.2831   14.5432 O.3         1 PAX      -0.3391
     35 C1        -26.9331  -35.5892   15.0095 C.3         1 PAX       0.1760
     36 C2        -26.3555  -35.6941   16.4368 C.3         1 PAX       0.0362
     37 C3        -26.2623  -34.2411   16.9408 C.3         1 PAX       0.1284
     38 O3        -27.1935  -34.0789   18.0427 O.3         1 PAX      -0.2441
     39 PD        -23.1353  -31.7820   15.1307 P.3         1 PAX       0.2008
     40 O1D       -23.4105  -30.4219   14.7424 O.co2       1 PAX      -0.5537
     41 O2D       -22.0991  -32.2820   14.2586 O.co2       1 PAX      -0.5537
     42 O3D       -22.6145  -31.8372   16.4750 O.co2       1 PAX      -0.5537
     43 N1T       -26.4287  -36.6171   14.1097 N.am        1 PAX      -0.1736
     44 C6T       -25.1078  -36.6100   13.7496 C.2         1 PAX       0.0524
     45 C2T       -27.2182  -37.5942   13.6172 C.2         1 PAX       0.3265
     46 O2T       -28.4025  -37.7174   13.8980 O.2         1 PAX      -0.3843
     47 N3T       -26.7073  -38.5187   12.8074 N.am        1 PAX      -0.1859
     48 C4T       -25.4173  -38.5319   12.4836 C.2         1 PAX       0.1930
     49 O4T       -25.0384  -39.4384   11.7527 O.2         1 PAX      -0.4079
     50 C5T       -24.5632  -37.5619   12.9519 C.2         1 PAX       0.0225
     51 CM5       -23.1411  -37.5764   12.6225 C.3         1 PAX      -0.0437
     52 H1        -38.0024  -35.1328   18.6756 H           1 PAX       0.0996
     53 H2        -36.1537  -38.2585   22.4889 H           1 PAX       0.1820
     54 H3        -37.7276  -37.6754   22.4355 H           1 PAX       0.1820
     55 H4        -32.2773  -37.8079   19.8304 H           1 PAX       0.1349
     56 H5        -30.9234  -32.5317   16.4079 H           1 PAX       0.0648
     57 H6        -32.0691  -32.5681   17.7791 H           1 PAX       0.0648
     58 H7        -30.5285  -35.0226   16.8237 H           1 PAX       0.0654
     59 H8        -32.3361  -37.0241   17.3515 H           1 PAX       0.0996
     60 H9        -34.3679  -34.7951   16.8636 H           1 PAX       0.0680
     61 H10       -34.8102  -35.9409   15.0729 H           1 PAX       0.2101
     62 H11       -32.8739  -33.7902   15.4594 H           1 PAX       0.0704
     63 H12       -26.0571  -31.5898   14.6335 H           1 PAX       0.0639
     64 H13       -25.5429  -31.6291   16.3366 H           1 PAX       0.0639
     65 H14       -27.6099  -33.0074   15.7665 H           1 PAX       0.0653
     66 H15       -28.0274  -35.6033   15.0836 H           1 PAX       0.0959
     67 H16       -25.3613  -36.1514   16.4288 H           1 PAX       0.0348
     68 H17       -27.0052  -36.3106   17.0614 H           1 PAX       0.0348
     69 H18       -25.2314  -34.0674   17.2785 H           1 PAX       0.0686
     70 H19       -24.5143  -35.8954   14.1040 H           1 PAX       0.1011
     71 H20       -27.2883  -39.2106   12.4531 H           1 PAX       0.2259
     72 H21       -22.6014  -36.7207   13.0307 H           1 PAX       0.0296
     73 H22       -23.0101  -37.5659   11.5385 H           1 PAX       0.0296
     74 H23       -22.6848  -38.4843   13.0230 H           1 PAX       0.0296
@<TRIPOS>BOND
     1     1     2  ar
     2     1     3  ar
     3     1     4   1
     4     8     1   1
     5     4    23   1
     6     5     6  ar
     7     5     7  ar
     8     5     8   1
     9    38     5   1
    10     9    10  ar
    11     9    11  ar
    12     9    12  ar
    13    30     9   1
    14    13    14   1
    15    13    22   1
    16    26    13   1
    17    14    15  ar
    18    14    20  ar
    19    15    16  ar
    20    16    17  ar
    21    18    17  ar
    22    18    19   1
    23    20    18  ar
    24    21    20   1
    25    22    21   2
    26    23    24   1
    27    24    25   1
    28    24    29   1
    29    25    26   1
    30    27    26   1
    31    27    28   1
    32    29    27   1
    33    29    30   1
    34    32    31   1
    35    31    39   1
    36    33    32   1
    37    33    34   1
    38    37    33   1
    39    35    34   1
    40    36    35   1
    41    35    43   1
    42    37    36   1
    43    37    38   1
    44    39    40  ar
    45    39    41  ar
    46    39    42  ar
    47    43    44   1
    48    43    45  am
    49    44    50   2
    50    45    46   2
    51    45    47  am
    52    47    48  am
    53    48    49   2
    54    48    50   1
    55    50    51   1
    56    16    52   1
    57    19    53   1
    58    19    54   1
    59    22    55   1
    60    23    56   1
    61    23    57   1
    62    24    58   1
    63    26    59   1
    64    27    60   1
    65    28    61   1
    66    29    62   1
    67    32    63   1
    68    32    64   1
    69    33    65   1
    70    35    66   1
    71    36    67   1
    72    36    68   1
    73    37    69   1
    74    44    70   1
    75    47    71   1
    76    51    72   1
    77    51    73   1
    78    51    74   1
@<TRIPOS>SUBSTRUCTURE
     1  PAX     14

