@<TRIPOS>MOLECULE
1u1b_ligand_066
    74    78
SMALL
GAST_HUCK
****
This file was generated by PARSER (from files_GN.cpp)

@<TRIPOS>ATOM
      1 PA        -30.4238  -31.5448   17.7433 P.3         1 PAX       0.2972
      2 O1A       -30.3717  -31.2494   16.3273 O.co2       1 PAX      -0.6127
      3 O2A       -31.3480  -30.6083   18.3364 O.co2       1 PAX      -0.6127
      4 O5        -30.9566  -33.0094   17.9444 O.3         1 PAX      -0.2476
      5 PB        -28.1606  -30.1541   18.0269 P.3         1 PAX       0.2974
      6 O1B       -28.8596  -28.9070   18.2070 O.co2       1 PAX      -0.6127
      7 O2B       -26.9638  -30.0464   18.8259 O.co2       1 PAX      -0.6127
      8 O3A       -29.0321  -31.3871   18.4552 O.3         1 PAX      -0.1319
      9 PG        -33.6986  -35.9341   13.9319 P.3         1 PAX       0.2013
     10 O1G       -33.0034  -34.7804   13.4189 O.co2       1 PAX      -0.5537
     11 O2G       -33.2384  -37.0907   13.2056 O.co2       1 PAX      -0.5537
     12 O3G       -35.1189  -35.8037   13.7022 O.co2       1 PAX      -0.5537
     13 N9A       -34.7880  -35.9920   19.8807 N.pl3       1 PAX      -0.1919
     14 C4A       -34.3352  -35.5062   21.0527 C.ar        1 PAX       0.1613
     15 N3A       -33.1275  -34.9934   21.4131 N.ar        1 PAX      -0.2714
     16 C2A       -32.9233  -34.5441   22.6786 C.ar        1 PAX       0.0533
     17 N1A       -33.9228  -34.6190   23.5964 N.ar        1 PAX      -0.2698
     18 C6A       -35.1407  -35.1435   23.2962 C.ar        1 PAX       0.1298
     19 N6A       -36.0822  -35.2111   24.2510 N.pl3       1 PAX      -0.3152
     20 C5A       -35.3625  -35.6067   21.9881 C.ar        1 PAX       0.1045
     21 N7A       -36.4228  -36.1680   21.3936 N.2         1 PAX      -0.2958
     22 C8A       -36.0564  -36.3995   20.1225 C.2         1 PAX       0.1123
     23 C5        -32.2374  -33.2847   17.3170 C.3         1 PAX       0.1131
     24 C4        -32.5809  -34.7960   17.3216 C.3         1 PAX       0.1235
     25 O4        -32.9150  -35.2115   18.6497 O.3         1 PAX      -0.3360
     26 C1        -34.0639  -36.0764   18.6296 C.3         1 PAX       0.2013
     27 C2        -34.8545  -35.6609   17.3663 C.3         1 PAX       0.1432
     28 O2        -35.6116  -36.7334   16.7906 O.3         1 PAX      -0.3832
     29 C3        -33.7766  -35.1441   16.3930 C.3         1 PAX       0.1487
     30 O3        -33.3581  -36.1643   15.4373 O.3         1 PAX      -0.2674
     31 O5        -25.8467  -31.2716   12.2124 O.3         1 PAX      -0.2734
     32 C5        -25.6754  -31.0590   13.6319 C.3         1 PAX       0.1074
     33 C4        -26.9550  -31.2543   14.4882 C.3         1 PAX       0.1209
     34 O4        -27.4845  -32.5815   14.3324 O.3         1 PAX      -0.3391
     35 C1        -27.5621  -33.2701   15.6017 C.3         1 PAX       0.1760
     36 C2        -26.5526  -32.5000   16.4785 C.3         1 PAX       0.0362
     37 C3        -26.7052  -31.0457   16.0071 C.3         1 PAX       0.1284
     38 O3        -27.8180  -30.2633   16.5076 O.3         1 PAX      -0.2441
     39 PD        -25.8004  -32.7186   11.6395 P.3         1 PAX       0.2008
     40 O1D       -27.1101  -33.3227   11.5798 O.co2       1 PAX      -0.5537
     41 O2D       -24.8689  -33.5913   12.3212 O.co2       1 PAX      -0.5537
     42 O3D       -25.3370  -32.5930   10.2845 O.co2       1 PAX      -0.5537
     43 N1T       -27.3391  -34.7140   15.5114 N.am        1 PAX      -0.1736
     44 C6T       -27.6321  -35.3817   14.3519 C.2         1 PAX       0.0524
     45 C2T       -26.8973  -35.4449   16.5585 C.2         1 PAX       0.3265
     46 O2T       -26.7411  -34.9970   17.6861 O.2         1 PAX      -0.3843
     47 N3T       -26.5558  -36.7188   16.3813 N.am        1 PAX      -0.1859
     48 C4T       -26.7444  -37.3402   15.2238 C.2         1 PAX       0.1930
     49 O4T       -26.3336  -38.4870   15.1410 O.2         1 PAX      -0.4079
     50 C5T       -27.3595  -36.6950   14.1760 C.2         1 PAX       0.0225
     51 CM5       -27.7388  -37.4088   12.9625 C.3         1 PAX      -0.0437
     52 H1        -32.0186  -34.1611   22.9436 H           1 PAX       0.0996
     53 H2        -36.9580  -35.5862   24.0548 H           1 PAX       0.1820
     54 H3        -35.8871  -34.8900   25.1481 H           1 PAX       0.1820
     55 H4        -36.6890  -36.8154   19.4390 H           1 PAX       0.1349
     56 H5        -32.2240  -32.9753   16.2665 H           1 PAX       0.0648
     57 H6        -33.0364  -32.7396   17.8299 H           1 PAX       0.0648
     58 H7        -31.6909  -35.3535   17.0172 H           1 PAX       0.0654
     59 H8        -33.7140  -37.1055   18.5042 H           1 PAX       0.0996
     60 H9        -35.5440  -34.8443   17.6219 H           1 PAX       0.0680
     61 H10       -36.1200  -37.1520   17.5180 H           1 PAX       0.2101
     62 H11       -34.1629  -34.2406   15.9063 H           1 PAX       0.0704
     63 H12       -25.3836  -30.0104   13.7208 H           1 PAX       0.0639
     64 H13       -24.8439  -31.6446   14.0405 H           1 PAX       0.0639
     65 H14       -27.7053  -30.5524   14.1142 H           1 PAX       0.0653
     66 H15       -28.5682  -33.1198   16.0048 H           1 PAX       0.0959
     67 H16       -25.5357  -32.8547   16.2750 H           1 PAX       0.0348
     68 H17       -26.7561  -32.6033   17.5460 H           1 PAX       0.0348
     69 H18       -25.7790  -30.5011   16.2146 H           1 PAX       0.0686
     70 H19       -28.1035  -34.9056   13.6195 H           1 PAX       0.1011
     71 H20       -26.1202  -37.1842   17.1135 H           1 PAX       0.2259
     72 H21       -28.2495  -36.7679   12.2399 H           1 PAX       0.0296
     73 H22       -28.4116  -38.2331   13.2137 H           1 PAX       0.0296
     74 H23       -26.8447  -37.8115   12.4829 H           1 PAX       0.0296
@<TRIPOS>BOND
     1     1     2  ar
     2     1     3  ar
     3     1     4   1
     4     8     1   1
     5     4    23   1
     6     5     6  ar
     7     5     7  ar
     8     5     8   1
     9    38     5   1
    10     9    10  ar
    11     9    11  ar
    12     9    12  ar
    13    30     9   1
    14    13    14   1
    15    13    22   1
    16    26    13   1
    17    14    15  ar
    18    14    20  ar
    19    15    16  ar
    20    16    17  ar
    21    18    17  ar
    22    18    19   1
    23    20    18  ar
    24    21    20   1
    25    22    21   2
    26    23    24   1
    27    24    25   1
    28    24    29   1
    29    25    26   1
    30    27    26   1
    31    27    28   1
    32    29    27   1
    33    29    30   1
    34    32    31   1
    35    31    39   1
    36    33    32   1
    37    33    34   1
    38    37    33   1
    39    35    34   1
    40    36    35   1
    41    35    43   1
    42    37    36   1
    43    37    38   1
    44    39    40  ar
    45    39    41  ar
    46    39    42  ar
    47    43    44   1
    48    43    45  am
    49    44    50   2
    50    45    46   2
    51    45    47  am
    52    47    48  am
    53    48    49   2
    54    48    50   1
    55    50    51   1
    56    16    52   1
    57    19    53   1
    58    19    54   1
    59    22    55   1
    60    23    56   1
    61    23    57   1
    62    24    58   1
    63    26    59   1
    64    27    60   1
    65    28    61   1
    66    29    62   1
    67    32    63   1
    68    32    64   1
    69    33    65   1
    70    35    66   1
    71    36    67   1
    72    36    68   1
    73    37    69   1
    74    44    70   1
    75    47    71   1
    76    51    72   1
    77    51    73   1
    78    51    74   1
@<TRIPOS>SUBSTRUCTURE
     1  PAX     14

