@<TRIPOS>MOLECULE
1u1b_ligand_096
    74    78
SMALL
GAST_HUCK
****
This file was generated by PARSER (from files_GN.cpp)

@<TRIPOS>ATOM
      1 PA        -27.5782  -37.1646   14.4470 P.3         1 PAX       0.2972
      2 O1A       -26.9108  -35.9321   14.1068 O.co2       1 PAX      -0.6127
      3 O2A       -26.7006  -37.9741   15.2641 O.co2       1 PAX      -0.6127
      4 O5        -28.8332  -36.9337   15.3496 O.3         1 PAX      -0.2476
      5 PB        -26.9559  -38.0990   12.0510 P.3         1 PAX       0.2974
      6 O1B       -27.6426  -38.6856   10.9215 O.co2       1 PAX      -0.6127
      7 O2B       -26.4755  -36.8147   11.5964 O.co2       1 PAX      -0.6127
      8 O3A       -28.0361  -37.9291   13.1654 O.3         1 PAX      -0.1319
      9 PG        -30.7107  -31.9805   18.3753 P.3         1 PAX       0.2013
     10 O1G       -30.8297  -30.9330   17.3967 O.co2       1 PAX      -0.5537
     11 O2G       -32.0171  -32.5360   18.6457 O.co2       1 PAX      -0.5537
     12 O3G       -30.2770  -31.3612   19.6017 O.co2       1 PAX      -0.5537
     13 N9A       -25.6513  -32.7996   15.9501 N.pl3       1 PAX      -0.1919
     14 C4A       -24.7907  -33.5231   15.2043 C.ar        1 PAX       0.1613
     15 N3A       -24.7677  -34.8382   14.8518 N.ar        1 PAX      -0.2714
     16 C2A       -23.7698  -35.3200   14.0621 C.ar        1 PAX       0.0533
     17 N1A       -22.7867  -34.4889   13.6121 N.ar        1 PAX      -0.2698
     18 C6A       -22.7555  -33.1731   13.9485 C.ar        1 PAX       0.1298
     19 N6A       -21.7670  -32.3887   13.4900 N.pl3       1 PAX      -0.3152
     20 C5A       -23.7762  -32.6664   14.7733 C.ar        1 PAX       0.1045
     21 N7A       -23.9982  -31.4491   15.2794 N.2         1 PAX      -0.2958
     22 C8A       -25.1199  -31.5551   16.0167 C.2         1 PAX       0.1123
     23 C5        -29.3971  -35.6086   15.4592 C.3         1 PAX       0.1131
     24 C4        -28.6714  -34.7247   16.5171 C.3         1 PAX       0.1235
     25 O4        -27.2783  -34.5508   16.2012 O.3         1 PAX      -0.3360
     26 C1        -26.8749  -33.2276   16.5921 C.3         1 PAX       0.2013
     27 C2        -28.1237  -32.3848   16.2520 C.3         1 PAX       0.1432
     28 O2        -28.1627  -31.1208   16.9161 O.3         1 PAX      -0.3832
     29 C3        -29.2952  -33.3066   16.6640 C.3         1 PAX       0.1487
     30 O3        -29.7123  -33.1290   18.0420 O.3         1 PAX      -0.2674
     31 O5        -22.7024  -38.7987    9.0614 O.3         1 PAX      -0.2734
     32 C5        -24.1334  -38.9089    9.2207 C.3         1 PAX       0.1074
     33 C4        -24.6183  -39.7988   10.4004 C.3         1 PAX       0.1209
     34 O4        -23.8553  -41.0144   10.4411 O.3         1 PAX      -0.3391
     35 C1        -23.7637  -41.4256   11.8112 C.3         1 PAX       0.1760
     36 C2        -23.6454  -40.0978   12.5822 C.3         1 PAX       0.0362
     37 C3        -24.5656  -39.1359   11.8075 C.3         1 PAX       0.1284
     38 O3        -25.8305  -39.0798   12.5096 O.3         1 PAX      -0.2441
     39 PD        -21.8776  -37.8536    9.9848 P.3         1 PAX       0.2008
     40 O1D       -20.7514  -37.4206    9.1935 O.co2       1 PAX      -0.5537
     41 O2D       -21.3065  -38.5164   11.1325 O.co2       1 PAX      -0.5537
     42 O3D       -22.5653  -36.6482   10.3799 O.co2       1 PAX      -0.5537
     43 N1T       -22.6729  -42.3420   12.1152 N.am        1 PAX      -0.1736
     44 C6T       -22.7609  -43.1192   13.2414 C.2         1 PAX       0.0524
     45 C2T       -21.5532  -42.4288   11.3671 C.2         1 PAX       0.3265
     46 O2T       -21.3364  -41.7533   10.3720 O.2         1 PAX      -0.3843
     47 N3T       -20.5871  -43.2750   11.7091 N.am        1 PAX      -0.1859
     48 C4T       -20.6760  -44.0423   12.7894 C.2         1 PAX       0.1930
     49 O4T       -19.7354  -44.7900   13.0184 O.2         1 PAX      -0.4079
     50 C5T       -21.7787  -43.9742   13.6078 C.2         1 PAX       0.0225
     51 CM5       -21.8594  -44.7711   14.8289 C.3         1 PAX      -0.0437
     52 H1        -23.7526  -36.3068   13.8024 H           1 PAX       0.0996
     53 H2        -21.7278  -31.4562   13.7538 H           1 PAX       0.1820
     54 H3        -21.0732  -32.7590   12.9185 H           1 PAX       0.1820
     55 H4        -25.5059  -30.7747   16.5447 H           1 PAX       0.1349
     56 H5        -30.4314  -35.7357   15.7909 H           1 PAX       0.0648
     57 H6        -29.4448  -35.0918   14.4920 H           1 PAX       0.0648
     58 H7        -28.7077  -35.2569   17.4727 H           1 PAX       0.0654
     59 H8        -26.7169  -33.2133   17.6756 H           1 PAX       0.0996
     60 H9        -28.1564  -32.2150   15.1685 H           1 PAX       0.0680
     61 H10       -27.6210  -30.5107   16.3731 H           1 PAX       0.2101
     62 H11       -30.1287  -33.1795   15.9623 H           1 PAX       0.0704
     63 H12       -24.4670  -39.3995    8.3004 H           1 PAX       0.0639
     64 H13       -24.6360  -37.9376    9.2376 H           1 PAX       0.0639
     65 H14       -25.6550  -40.0885   10.1896 H           1 PAX       0.0653
     66 H15       -24.7216  -41.9063   12.0539 H           1 PAX       0.0959
     67 H16       -22.6119  -39.7435   12.5623 H           1 PAX       0.0348
     68 H17       -23.9360  -40.2070   13.6279 H           1 PAX       0.0348
     69 H18       -24.1072  -38.1402   11.7842 H           1 PAX       0.0686
     70 H19       -23.5667  -43.0415   13.8212 H           1 PAX       0.1011
     71 H20       -19.7910  -43.3300   11.1548 H           1 PAX       0.2259
     72 H21       -22.7895  -44.6140   15.3802 H           1 PAX       0.0296
     73 H22       -21.0310  -44.5108   15.4935 H           1 PAX       0.0296
     74 H23       -21.7925  -45.8306   14.5774 H           1 PAX       0.0296
@<TRIPOS>BOND
     1     1     2  ar
     2     1     3  ar
     3     1     4   1
     4     8     1   1
     5     4    23   1
     6     5     6  ar
     7     5     7  ar
     8     5     8   1
     9    38     5   1
    10     9    10  ar
    11     9    11  ar
    12     9    12  ar
    13    30     9   1
    14    13    14   1
    15    13    22   1
    16    26    13   1
    17    14    15  ar
    18    14    20  ar
    19    15    16  ar
    20    16    17  ar
    21    18    17  ar
    22    18    19   1
    23    20    18  ar
    24    21    20   1
    25    22    21   2
    26    23    24   1
    27    24    25   1
    28    24    29   1
    29    25    26   1
    30    27    26   1
    31    27    28   1
    32    29    27   1
    33    29    30   1
    34    32    31   1
    35    31    39   1
    36    33    32   1
    37    33    34   1
    38    37    33   1
    39    35    34   1
    40    36    35   1
    41    35    43   1
    42    37    36   1
    43    37    38   1
    44    39    40  ar
    45    39    41  ar
    46    39    42  ar
    47    43    44   1
    48    43    45  am
    49    44    50   2
    50    45    46   2
    51    45    47  am
    52    47    48  am
    53    48    49   2
    54    48    50   1
    55    50    51   1
    56    16    52   1
    57    19    53   1
    58    19    54   1
    59    22    55   1
    60    23    56   1
    61    23    57   1
    62    24    58   1
    63    26    59   1
    64    27    60   1
    65    28    61   1
    66    29    62   1
    67    32    63   1
    68    32    64   1
    69    33    65   1
    70    35    66   1
    71    36    67   1
    72    36    68   1
    73    37    69   1
    74    44    70   1
    75    47    71   1
    76    51    72   1
    77    51    73   1
    78    51    74   1
@<TRIPOS>SUBSTRUCTURE
     1  PAX     14

