@<TRIPOS>MOLECULE
1u1b_ligand_001
    74    78
SMALL
GAST_HUCK
****
This file was generated by PARSER (from files_GN.cpp)

@<TRIPOS>ATOM
      1 PA        -23.0432  -34.4033   18.1787 P.3         1 PAX       0.2972
      2 O1A       -23.0215  -34.2653   19.6126 O.co2       1 PAX      -0.6127
      3 O2A       -22.3944  -35.6733   17.9608 O.co2       1 PAX      -0.6127
      4 O5        -24.5667  -34.5261   17.8887 O.3         1 PAX      -0.2476
      5 PB        -21.2189  -33.1883   16.6367 P.3         1 PAX       0.2974
      6 O1B       -21.7839  -33.4302   15.3291 O.co2       1 PAX      -0.6127
      7 O2B       -20.6009  -31.8832   16.6064 O.co2       1 PAX      -0.6127
      8 O3A       -22.3795  -33.0807   17.6711 O.3         1 PAX      -0.1319
      9 PG        -26.9468  -37.3759   14.1471 P.3         1 PAX       0.2013
     10 O1G       -27.8194  -38.2398   13.3906 O.co2       1 PAX      -0.5537
     11 O2G       -25.8540  -37.0331   13.2709 O.co2       1 PAX      -0.5537
     12 O3G       -26.4609  -38.1578   15.2582 O.co2       1 PAX      -0.5537
     13 N9A       -28.7911  -32.5869   17.3569 N.pl3       1 PAX      -0.1919
     14 C4A       -28.0542  -31.6796   18.0254 C.ar        1 PAX       0.1613
     15 N3A       -26.7478  -31.6863   18.3984 N.ar        1 PAX      -0.2714
     16 C2A       -26.2212  -30.6257   19.0555 C.ar        1 PAX       0.0533
     17 N1A       -26.9948  -29.5463   19.3475 N.ar        1 PAX      -0.2698
     18 C6A       -28.3137  -29.4889   18.9972 C.ar        1 PAX       0.1298
     19 N6A       -29.0487  -28.4081   19.3010 N.pl3       1 PAX      -0.3152
     20 C5A       -28.8703  -30.5857   18.3134 C.ar        1 PAX       0.1045
     21 N7A       -30.0928  -30.8385   17.8314 N.2         1 PAX      -0.2958
     22 C8A       -30.0297  -32.0553   17.2548 C.2         1 PAX       0.1123
     23 C5        -24.9276  -34.9694   16.5636 C.3         1 PAX       0.1131
     24 C4        -26.4600  -35.1896   16.5182 C.3         1 PAX       0.1235
     25 O4        -27.0847  -34.2621   17.4062 O.3         1 PAX      -0.3360
     26 C1        -28.3463  -33.8596   16.8520 C.3         1 PAX       0.2013
     27 C2        -28.0891  -33.8378   15.3324 C.3         1 PAX       0.1432
     28 O2        -29.2966  -33.9587   14.5721 O.3         1 PAX      -0.3832
     29 C3        -27.0865  -34.9968   15.1054 C.3         1 PAX       0.1487
     30 O3        -27.7953  -36.1666   14.6277 O.3         1 PAX      -0.2674
     31 O5        -16.1588  -33.2834   15.3836 O.3         1 PAX      -0.2734
     32 C5        -17.4225  -33.3507   14.6841 C.3         1 PAX       0.1074
     33 C4        -18.3353  -34.4472   15.2989 C.3         1 PAX       0.1209
     34 O4        -17.6677  -35.7226   15.2966 O.3         1 PAX      -0.3391
     35 C1        -17.9822  -36.3935   16.5262 C.3         1 PAX       0.1760
     36 C2        -18.0596  -35.2473   17.5518 C.3         1 PAX       0.0362
     37 C3        -18.7746  -34.1371   16.7644 C.3         1 PAX       0.1284
     38 O3        -20.1870  -34.2988   17.0242 O.3         1 PAX      -0.2441
     39 PD        -14.9249  -33.9719   14.7450 P.3         1 PAX       0.2008
     40 O1D       -13.9342  -34.1494   15.7782 O.co2       1 PAX      -0.5537
     41 O2D       -14.3310  -33.1186   13.7458 O.co2       1 PAX      -0.5537
     42 O3D       -15.1819  -35.2721   14.1791 O.co2       1 PAX      -0.5537
     43 N1T       -17.0181  -37.4202   16.8864 N.am        1 PAX      -0.1736
     44 C6T       -15.6813  -37.1815   16.7249 C.2         1 PAX       0.0524
     45 C2T       -17.4050  -38.6148   17.3909 C.2         1 PAX       0.3265
     46 O2T       -18.5672  -38.9317   17.6097 O.2         1 PAX      -0.3843
     47 N3T       -16.4980  -39.5324   17.7090 N.am        1 PAX      -0.1859
     48 C4T       -15.1980  -39.3173   17.5303 C.2         1 PAX       0.1930
     49 O4T       -14.4400  -40.2144   17.8753 O.2         1 PAX      -0.4079
     50 C5T       -14.7484  -38.1183   17.0139 C.2         1 PAX       0.0225
     51 CM5       -13.3243  -37.8917   16.7901 C.3         1 PAX      -0.0437
     52 H1        -25.2366  -30.6435   19.3273 H           1 PAX       0.0996
     53 H2        -29.9808  -28.3691   19.0378 H           1 PAX       0.1820
     54 H3        -28.6550  -27.6584   19.7813 H           1 PAX       0.1820
     55 H4        -30.8269  -32.5098   16.7931 H           1 PAX       0.1349
     56 H5        -24.4177  -35.9100   16.3112 H           1 PAX       0.0648
     57 H6        -24.6477  -34.1960   15.8310 H           1 PAX       0.0648
     58 H7        -26.6902  -36.1879   16.8950 H           1 PAX       0.0654
     59 H8        -29.0989  -34.6262   17.0986 H           1 PAX       0.0996
     60 H9        -27.6027  -32.8796   15.0659 H           1 PAX       0.0680
     61 H10       -29.0160  -33.9040   13.6309 H           1 PAX       0.2101
     62 H11       -26.3530  -34.6571   14.3623 H           1 PAX       0.0704
     63 H12       -17.3321  -33.5165   13.6036 H           1 PAX       0.0639
     64 H13       -17.9222  -32.3840   14.8232 H           1 PAX       0.0639
     65 H14       -19.2182  -34.5483   14.6630 H           1 PAX       0.0653
     66 H15       -18.9946  -36.8126   16.4156 H           1 PAX       0.0959
     67 H16       -17.0558  -34.9235   17.8523 H           1 PAX       0.0348
     68 H17       -18.6073  -35.5537   18.4473 H           1 PAX       0.0348
     69 H18       -18.4225  -33.1637   17.1286 H           1 PAX       0.0686
     70 H19       -15.3811  -36.2995   16.3844 H           1 PAX       0.1011
     71 H20       -16.7902  -40.3818   18.0870 H           1 PAX       0.2259
     72 H21       -13.1196  -36.9128   16.3556 H           1 PAX       0.0296
     73 H22       -12.9312  -38.6501   16.1061 H           1 PAX       0.0296
     74 H23       -12.7833  -37.9588   17.7383 H           1 PAX       0.0296
@<TRIPOS>BOND
     1     1     2  ar
     2     1     3  ar
     3     1     4   1
     4     8     1   1
     5     4    23   1
     6     5     6  ar
     7     5     7  ar
     8     5     8   1
     9    38     5   1
    10     9    10  ar
    11     9    11  ar
    12     9    12  ar
    13    30     9   1
    14    13    14   1
    15    13    22   1
    16    26    13   1
    17    14    15  ar
    18    14    20  ar
    19    15    16  ar
    20    16    17  ar
    21    18    17  ar
    22    18    19   1
    23    20    18  ar
    24    21    20   1
    25    22    21   2
    26    23    24   1
    27    24    25   1
    28    24    29   1
    29    25    26   1
    30    27    26   1
    31    27    28   1
    32    29    27   1
    33    29    30   1
    34    32    31   1
    35    31    39   1
    36    33    32   1
    37    33    34   1
    38    37    33   1
    39    35    34   1
    40    36    35   1
    41    35    43   1
    42    37    36   1
    43    37    38   1
    44    39    40  ar
    45    39    41  ar
    46    39    42  ar
    47    43    44   1
    48    43    45  am
    49    44    50   2
    50    45    46   2
    51    45    47  am
    52    47    48  am
    53    48    49   2
    54    48    50   1
    55    50    51   1
    56    16    52   1
    57    19    53   1
    58    19    54   1
    59    22    55   1
    60    23    56   1
    61    23    57   1
    62    24    58   1
    63    26    59   1
    64    27    60   1
    65    28    61   1
    66    29    62   1
    67    32    63   1
    68    32    64   1
    69    33    65   1
    70    35    66   1
    71    36    67   1
    72    36    68   1
    73    37    69   1
    74    44    70   1
    75    47    71   1
    76    51    72   1
    77    51    73   1
    78    51    74   1
@<TRIPOS>SUBSTRUCTURE
     1  PAX     14

