@<TRIPOS>MOLECULE
1u1b_ligand_069
    74    78
SMALL
GAST_HUCK
****
This file was generated by PARSER (from files_GN.cpp)

@<TRIPOS>ATOM
      1 PA        -30.1543  -31.9667   14.2858 P.3         1 PAX       0.2972
      2 O1A       -31.3138  -32.6028   13.6977 O.co2       1 PAX      -0.6127
      3 O2A       -29.0146  -32.4048   13.5145 O.co2       1 PAX      -0.6127
      4 O5        -30.2368  -30.4409   13.9941 O.3         1 PAX      -0.2476
      5 PB        -29.9345  -33.7279   16.2763 P.3         1 PAX       0.2974
      6 O1B       -29.9042  -33.7235   17.7164 O.co2       1 PAX      -0.6127
      7 O2B       -31.2065  -34.3453   15.9942 O.co2       1 PAX      -0.6127
      8 O3A       -29.9322  -32.2393   15.8055 O.3         1 PAX      -0.1319
      9 PG        -33.2142  -27.2480   18.5726 P.3         1 PAX       0.2013
     10 O1G       -33.7957  -26.1666   17.8211 O.co2       1 PAX      -0.5537
     11 O2G       -34.2424  -28.1771   18.9806 O.co2       1 PAX      -0.5537
     12 O3G       -32.6891  -26.6745   19.7899 O.co2       1 PAX      -0.5537
     13 N9A       -28.8211  -26.2272   15.4262 N.pl3       1 PAX      -0.1919
     14 C4A       -28.5714  -24.9241   15.6304 C.ar        1 PAX       0.1613
     15 N3A       -29.0554  -24.0468   16.5478 N.ar        1 PAX      -0.2714
     16 C2A       -28.6488  -22.7462   16.5306 C.ar        1 PAX       0.0533
     17 N1A       -27.7591  -22.3210   15.5896 N.ar        1 PAX      -0.2698
     18 C6A       -27.2451  -23.1647   14.6554 C.ar        1 PAX       0.1298
     19 N6A       -26.3682  -22.7030   13.7482 N.pl3       1 PAX      -0.3152
     20 C5A       -27.6577  -24.5089   14.6684 C.ar        1 PAX       0.1045
     21 N7A       -27.3456  -25.5580   13.8995 N.2         1 PAX      -0.2958
     22 C8A       -28.0548  -26.5987   14.3753 C.2         1 PAX       0.1123
     23 C5        -31.3116  -29.6760   14.5884 C.3         1 PAX       0.1131
     24 C4        -30.9403  -29.0497   15.9639 C.3         1 PAX       0.1235
     25 O4        -29.6426  -28.4429   15.8405 O.3         1 PAX      -0.3360
     26 C1        -29.7281  -27.0507   16.1815 C.3         1 PAX       0.2013
     27 C2        -31.2070  -26.6780   15.9609 C.3         1 PAX       0.1432
     28 O2        -31.5800  -25.4947   16.6603 O.3         1 PAX      -0.3832
     29 C3        -31.9345  -27.9519   16.4344 C.3         1 PAX       0.1487
     30 O3        -32.0405  -28.0031   17.8796 O.3         1 PAX      -0.2674
     31 O5        -26.5758  -32.5242   18.1312 O.3         1 PAX      -0.2734
     32 C5        -25.7534  -32.9274   17.0167 C.3         1 PAX       0.1074
     33 C4        -26.5883  -33.5554   15.8625 C.3         1 PAX       0.1209
     34 O4        -25.7018  -34.0929   14.8597 O.3         1 PAX      -0.3391
     35 C1        -26.1071  -35.4338   14.5109 C.3         1 PAX       0.1760
     36 C2        -26.7652  -35.9411   15.8149 C.3         1 PAX       0.0362
     37 C3        -27.5262  -34.7071   16.3230 C.3         1 PAX       0.1284
     38 O3        -28.8328  -34.6749   15.6939 O.3         1 PAX      -0.2441
     39 PD        -27.2534  -31.1226   18.0990 P.3         1 PAX       0.2008
     40 O1D       -27.6463  -30.6584   16.7964 O.co2       1 PAX      -0.5537
     41 O2D       -26.4291  -30.1324   18.7533 O.co2       1 PAX      -0.5537
     42 O3D       -28.4523  -31.2149   18.8958 O.co2       1 PAX      -0.5537
     43 N1T       -25.0455  -36.2954   13.9857 N.am        1 PAX      -0.1736
     44 C6T       -23.8152  -35.7865   13.6693 C.2         1 PAX       0.0524
     45 C2T       -25.2701  -37.6056   13.7372 C.2         1 PAX       0.3265
     46 O2T       -26.3472  -38.1604   13.9110 O.2         1 PAX      -0.3843
     47 N3T       -24.2924  -38.3747   13.2644 N.am        1 PAX      -0.1859
     48 C4T       -23.0903  -37.8863   12.9873 C.2         1 PAX       0.1930
     49 O4T       -22.2368  -38.6801   12.6074 O.2         1 PAX      -0.4079
     50 C5T       -22.8245  -36.5491   13.1424 C.2         1 PAX       0.0225
     51 CM5       -21.5465  -35.9806   12.7244 C.3         1 PAX      -0.0437
     52 H1        -29.0179  -22.0841   17.2172 H           1 PAX       0.0996
     53 H2        -25.9960  -23.2971   13.0763 H           1 PAX       0.1820
     54 H3        -26.1045  -21.7679   13.7591 H           1 PAX       0.1820
     55 H4        -28.0196  -27.5354   13.9668 H           1 PAX       0.1349
     56 H5        -32.2435  -30.2442   14.6779 H           1 PAX       0.0648
     57 H6        -31.5102  -28.8592   13.8891 H           1 PAX       0.0648
     58 H7        -30.8813  -29.8534   16.7063 H           1 PAX       0.0654
     59 H8        -29.4760  -26.9648   17.2429 H           1 PAX       0.0996
     60 H9        -31.3923  -26.5217   14.8928 H           1 PAX       0.0680
     61 H10       -32.5092  -25.3264   16.3985 H           1 PAX       0.2101
     62 H11       -32.9020  -28.0660   15.9316 H           1 PAX       0.0704
     63 H12       -25.0757  -33.6928   17.3923 H           1 PAX       0.0639
     64 H13       -25.1279  -32.1125   16.6326 H           1 PAX       0.0639
     65 H14       -27.1667  -32.7584   15.3897 H           1 PAX       0.0653
     66 H15       -26.8810  -35.3459   13.7369 H           1 PAX       0.0959
     67 H16       -25.9896  -36.2365   16.5321 H           1 PAX       0.0348
     68 H17       -27.4423  -36.7842   15.6456 H           1 PAX       0.0348
     69 H18       -27.6067  -34.7878   17.4128 H           1 PAX       0.0686
     70 H19       -23.6365  -34.8194   13.7987 H           1 PAX       0.1011
     71 H20       -24.4631  -39.3205   13.1264 H           1 PAX       0.2259
     72 H21       -21.4970  -34.8968   12.8622 H           1 PAX       0.0296
     73 H22       -21.3823  -36.1876   11.6629 H           1 PAX       0.0296
     74 H23       -20.7342  -36.4354   13.2988 H           1 PAX       0.0296
@<TRIPOS>BOND
     1     1     2  ar
     2     1     3  ar
     3     1     4   1
     4     8     1   1
     5     4    23   1
     6     5     6  ar
     7     5     7  ar
     8     5     8   1
     9    38     5   1
    10     9    10  ar
    11     9    11  ar
    12     9    12  ar
    13    30     9   1
    14    13    14   1
    15    13    22   1
    16    26    13   1
    17    14    15  ar
    18    14    20  ar
    19    15    16  ar
    20    16    17  ar
    21    18    17  ar
    22    18    19   1
    23    20    18  ar
    24    21    20   1
    25    22    21   2
    26    23    24   1
    27    24    25   1
    28    24    29   1
    29    25    26   1
    30    27    26   1
    31    27    28   1
    32    29    27   1
    33    29    30   1
    34    32    31   1
    35    31    39   1
    36    33    32   1
    37    33    34   1
    38    37    33   1
    39    35    34   1
    40    36    35   1
    41    35    43   1
    42    37    36   1
    43    37    38   1
    44    39    40  ar
    45    39    41  ar
    46    39    42  ar
    47    43    44   1
    48    43    45  am
    49    44    50   2
    50    45    46   2
    51    45    47  am
    52    47    48  am
    53    48    49   2
    54    48    50   1
    55    50    51   1
    56    16    52   1
    57    19    53   1
    58    19    54   1
    59    22    55   1
    60    23    56   1
    61    23    57   1
    62    24    58   1
    63    26    59   1
    64    27    60   1
    65    28    61   1
    66    29    62   1
    67    32    63   1
    68    32    64   1
    69    33    65   1
    70    35    66   1
    71    36    67   1
    72    36    68   1
    73    37    69   1
    74    44    70   1
    75    47    71   1
    76    51    72   1
    77    51    73   1
    78    51    74   1
@<TRIPOS>SUBSTRUCTURE
     1  PAX     14

