@<TRIPOS>MOLECULE
1u1b_ligand_014
    74    78
SMALL
GAST_HUCK
****
This file was generated by PARSER (from files_GN.cpp)

@<TRIPOS>ATOM
      1 PA        -28.3085  -30.5012   13.8595 P.3         1 PAX       0.2972
      2 O1A       -29.7482  -30.4793   13.7585 O.co2       1 PAX      -0.6127
      3 O2A       -27.8914  -29.1589   13.5351 O.co2       1 PAX      -0.6127
      4 O5        -27.7886  -30.8380   15.2909 O.3         1 PAX      -0.2476
      5 PB        -27.8084  -32.9093   12.9020 P.3         1 PAX       0.2974
      6 O1B       -27.3910  -33.4347   11.6275 O.co2       1 PAX      -0.6127
      7 O2B       -26.7939  -33.3639   13.8238 O.co2       1 PAX      -0.6127
      8 O3A       -27.7127  -31.3716   12.7199 O.3         1 PAX      -0.1319
      9 PG        -26.3425  -33.7074   19.0648 P.3         1 PAX       0.2013
     10 O1G       -25.0159  -33.9007   19.5883 O.co2       1 PAX      -0.5537
     11 O2G       -27.2741  -34.3097   19.9881 O.co2       1 PAX      -0.5537
     12 O3G       -26.3996  -34.4098   17.8043 O.co2       1 PAX      -0.5537
     13 N9A       -29.1207  -28.9728   20.6996 N.pl3       1 PAX      -0.1919
     14 C4A       -30.2028  -28.2922   20.2763 C.ar        1 PAX       0.1613
     15 N3A       -30.7861  -28.2008   19.0544 N.ar        1 PAX      -0.2714
     16 C2A       -31.8712  -27.3987   18.8767 C.ar        1 PAX       0.0533
     17 N1A       -32.3714  -26.6856   19.9230 N.ar        1 PAX      -0.2698
     18 C6A       -31.8196  -26.7466   21.1671 C.ar        1 PAX       0.1298
     19 N6A       -32.3356  -26.0109   22.1588 N.pl3       1 PAX      -0.3152
     20 C5A       -30.7016  -27.5770   21.3645 C.ar        1 PAX       0.1045
     21 N7A       -29.9393  -27.8399   22.4324 N.2         1 PAX      -0.2958
     22 C8A       -28.9778  -28.6886   22.0142 C.2         1 PAX       0.1123
     23 C5        -28.5783  -30.3200   16.3887 C.3         1 PAX       0.1131
     24 C4        -27.7608  -30.3800   17.7068 C.3         1 PAX       0.1235
     25 O4        -28.2051  -29.3025   18.5524 O.3         1 PAX      -0.3360
     26 C1        -28.2369  -29.7744   19.8995 C.3         1 PAX       0.2013
     27 C2        -28.6727  -31.2434   19.7628 C.3         1 PAX       0.1432
     28 O2        -28.4064  -31.9806   20.9545 O.3         1 PAX      -0.3832
     29 C3        -27.8935  -31.7060   18.5130 C.3         1 PAX       0.1487
     30 O3        -26.5654  -32.1800   18.8585 O.3         1 PAX      -0.2674
     31 O5        -27.7188  -35.9348   15.8519 O.3         1 PAX      -0.2734
     32 C5        -29.1262  -35.6922   16.0846 C.3         1 PAX       0.1074
     33 C4        -29.8816  -35.1876   14.8191 C.3         1 PAX       0.1209
     34 O4        -31.2900  -35.3943   15.0189 O.3         1 PAX      -0.3391
     35 C1        -32.0353  -34.3118   14.4348 C.3         1 PAX       0.1760
     36 C2        -31.0963  -33.1101   14.6929 C.3         1 PAX       0.0362
     37 C3        -29.6803  -33.6769   14.5116 C.3         1 PAX       0.1284
     38 O3        -29.2409  -33.4853   13.1409 O.3         1 PAX      -0.2441
     39 PD        -27.3083  -37.0549   14.8461 P.3         1 PAX       0.2008
     40 O1D       -28.4045  -37.8642   14.3778 O.co2       1 PAX      -0.5537
     41 O2D       -26.3670  -37.9371   15.4921 O.co2       1 PAX      -0.5537
     42 O3D       -26.6364  -36.4731   13.7106 O.co2       1 PAX      -0.5537
     43 N1T       -33.3968  -34.2409   14.9625 N.am        1 PAX      -0.1736
     44 C6T       -34.0552  -33.0427   15.0614 C.2         1 PAX       0.0524
     45 C2T       -34.0696  -35.3588   15.3007 C.2         1 PAX       0.3265
     46 O2T       -33.6184  -36.4921   15.1759 O.2         1 PAX      -0.3843
     47 N3T       -35.2993  -35.2720   15.8030 N.am        1 PAX      -0.1859
     48 C4T       -35.9133  -34.1027   15.9622 C.2         1 PAX       0.1930
     49 O4T       -37.0363  -34.1353   16.4459 O.2         1 PAX      -0.4079
     50 C5T       -35.3049  -32.9333   15.5721 C.2         1 PAX       0.0225
     51 CM5       -35.9347  -31.6228   15.6616 C.3         1 PAX      -0.0437
     52 H1        -32.3053  -27.3297   17.9555 H           1 PAX       0.0996
     53 H2        -31.9154  -26.0084   23.0342 H           1 PAX       0.1820
     54 H3        -33.1072  -25.4442   21.9887 H           1 PAX       0.1820
     55 H4        -28.2363  -29.0497   22.6165 H           1 PAX       0.1349
     56 H5        -29.5001  -30.9026   16.5107 H           1 PAX       0.0648
     57 H6        -28.8578  -29.2705   16.2304 H           1 PAX       0.0648
     58 H7        -26.7053  -30.1970   17.4731 H           1 PAX       0.0654
     59 H8        -27.2189  -29.7151   20.3045 H           1 PAX       0.0996
     60 H9        -29.7482  -31.2945   19.5592 H           1 PAX       0.0680
     61 H10       -27.4917  -31.7406   21.2101 H           1 PAX       0.2101
     62 H11       -28.4771  -32.4472   17.9542 H           1 PAX       0.0704
     63 H12       -29.2018  -34.9246   16.8563 H           1 PAX       0.0639
     64 H13       -29.6232  -36.5761   16.4916 H           1 PAX       0.0639
     65 H14       -29.5879  -35.8009   13.9591 H           1 PAX       0.0653
     66 H15       -32.0962  -34.4838   13.3523 H           1 PAX       0.0959
     67 H16       -31.2093  -32.7623   15.7263 H           1 PAX       0.0348
     68 H17       -31.2901  -32.2821   14.0062 H           1 PAX       0.0348
     69 H18       -29.0223  -33.1922   15.2460 H           1 PAX       0.0686
     70 H19       -33.6173  -32.2117   14.7292 H           1 PAX       0.1011
     71 H20       -35.7561  -36.0863   16.0662 H           1 PAX       0.2259
     72 H21       -35.3213  -30.9590   16.2755 H           1 PAX       0.0296
     73 H22       -36.9313  -31.6588   16.1036 H           1 PAX       0.0296
     74 H23       -36.0267  -31.1914   14.6626 H           1 PAX       0.0296
@<TRIPOS>BOND
     1     1     2  ar
     2     1     3  ar
     3     1     4   1
     4     8     1   1
     5     4    23   1
     6     5     6  ar
     7     5     7  ar
     8     5     8   1
     9    38     5   1
    10     9    10  ar
    11     9    11  ar
    12     9    12  ar
    13    30     9   1
    14    13    14   1
    15    13    22   1
    16    26    13   1
    17    14    15  ar
    18    14    20  ar
    19    15    16  ar
    20    16    17  ar
    21    18    17  ar
    22    18    19   1
    23    20    18  ar
    24    21    20   1
    25    22    21   2
    26    23    24   1
    27    24    25   1
    28    24    29   1
    29    25    26   1
    30    27    26   1
    31    27    28   1
    32    29    27   1
    33    29    30   1
    34    32    31   1
    35    31    39   1
    36    33    32   1
    37    33    34   1
    38    37    33   1
    39    35    34   1
    40    36    35   1
    41    35    43   1
    42    37    36   1
    43    37    38   1
    44    39    40  ar
    45    39    41  ar
    46    39    42  ar
    47    43    44   1
    48    43    45  am
    49    44    50   2
    50    45    46   2
    51    45    47  am
    52    47    48  am
    53    48    49   2
    54    48    50   1
    55    50    51   1
    56    16    52   1
    57    19    53   1
    58    19    54   1
    59    22    55   1
    60    23    56   1
    61    23    57   1
    62    24    58   1
    63    26    59   1
    64    27    60   1
    65    28    61   1
    66    29    62   1
    67    32    63   1
    68    32    64   1
    69    33    65   1
    70    35    66   1
    71    36    67   1
    72    36    68   1
    73    37    69   1
    74    44    70   1
    75    47    71   1
    76    51    72   1
    77    51    73   1
    78    51    74   1
@<TRIPOS>SUBSTRUCTURE
     1  PAX     14

