@<TRIPOS>MOLECULE
1u1b_ligand_038
    74    78
SMALL
GAST_HUCK
****
This file was generated by PARSER (from files_GN.cpp)

@<TRIPOS>ATOM
      1 PA        -32.0382  -32.8457   18.0417 P.3         1 PAX       0.2972
      2 O1A       -31.9893  -31.5340   18.6428 O.co2       1 PAX      -0.6127
      3 O2A       -32.6270  -32.7436   16.7213 O.co2       1 PAX      -0.6127
      4 O5        -30.5865  -33.4303   17.9839 O.3         1 PAX      -0.2476
      5 PB        -34.3150  -33.4520   19.2983 P.3         1 PAX       0.2974
      6 O1B       -34.8783  -34.4912   20.1195 O.co2       1 PAX      -0.6127
      7 O2B       -34.2739  -32.3278   20.1976 O.co2       1 PAX      -0.6127
      8 O3A       -32.8584  -33.8575   18.8980 O.3         1 PAX      -0.1319
      9 PG        -25.0941  -32.2519   17.4193 P.3         1 PAX       0.2013
     10 O1G       -25.1994  -33.6791   17.5844 O.co2       1 PAX      -0.5537
     11 O2G       -24.1425  -32.0103   16.3654 O.co2       1 PAX      -0.5537
     12 O3G       -24.6071  -31.6412   18.6302 O.co2       1 PAX      -0.5537
     13 N9A       -29.7049  -29.0166   18.8875 N.pl3       1 PAX      -0.1919
     14 C4A       -29.6272  -28.7475   20.2046 C.ar        1 PAX       0.1613
     15 N3A       -28.7792  -29.1693   21.1761 N.ar        1 PAX      -0.2714
     16 C2A       -28.9162  -28.7450   22.4565 C.ar        1 PAX       0.0533
     17 N1A       -29.9157  -27.8809   22.7791 N.ar        1 PAX      -0.2698
     18 C6A       -30.7949  -27.4182   21.8452 C.ar        1 PAX       0.1298
     19 N6A       -31.7528  -26.5495   22.2044 N.pl3       1 PAX      -0.3152
     20 C5A       -30.6535  -27.8591   20.5192 C.ar        1 PAX       0.1045
     21 N7A       -31.3299  -27.5763   19.3983 N.2         1 PAX      -0.2958
     22 C8A       -30.7345  -28.2762   18.4158 C.2         1 PAX       0.1123
     23 C5        -29.7490  -33.1779   16.8335 C.3         1 PAX       0.1131
     24 C4        -28.8997  -31.8759   16.8766 C.3         1 PAX       0.1235
     25 O4        -29.6946  -30.7617   17.3113 O.3         1 PAX      -0.3360
     26 C1        -28.8771  -29.8666   18.0693 C.3         1 PAX       0.2013
     27 C2        -27.8898  -30.8034   18.7933 C.3         1 PAX       0.1432
     28 O2        -26.7076  -30.1079   19.1988 O.3         1 PAX      -0.3832
     29 C3        -27.6377  -31.9347   17.7801 C.3         1 PAX       0.1487
     30 O3        -26.4646  -31.6511   16.9781 O.3         1 PAX      -0.2674
     31 O5        -33.9932  -37.0220   16.4451 O.3         1 PAX      -0.2734
     32 C5        -35.2910  -36.3932   16.5421 C.3         1 PAX       0.1074
     33 C4        -35.2962  -34.8400   16.3624 C.3         1 PAX       0.1209
     34 O4        -35.9029  -34.4946   15.1028 O.3         1 PAX      -0.3391
     35 C1        -36.6409  -33.2665   15.2407 C.3         1 PAX       0.1760
     36 C2        -37.1845  -33.3670   16.6798 C.3         1 PAX       0.0362
     37 C3        -36.0644  -34.0597   17.4673 C.3         1 PAX       0.1284
     38 O3        -35.2715  -33.0404   18.1272 O.3         1 PAX      -0.2441
     39 PD        -33.0001  -36.8699   17.6408 P.3         1 PAX       0.2008
     40 O1D       -31.9549  -35.9260   17.3436 O.co2       1 PAX      -0.5537
     41 O2D       -32.3507  -38.1428   17.8216 O.co2       1 PAX      -0.5537
     42 O3D       -33.6173  -36.5564   18.9055 O.co2       1 PAX      -0.5537
     43 N1T       -37.6885  -33.0088   14.2514 N.am        1 PAX      -0.1736
     44 C6T       -38.3725  -31.8208   14.3167 C.2         1 PAX       0.0524
     45 C2T       -38.0153  -33.8614   13.2555 C.2         1 PAX       0.3265
     46 O2T       -37.4616  -34.9346   13.0590 O.2         1 PAX      -0.3843
     47 N3T       -38.9933  -33.5637   12.4068 N.am        1 PAX      -0.1859
     48 C4T       -39.6861  -32.4308   12.4998 C.2         1 PAX       0.1930
     49 O4T       -40.5612  -32.2488   11.6679 O.2         1 PAX      -0.4079
     50 C5T       -39.3983  -31.5170   13.4884 C.2         1 PAX       0.0225
     51 CM5       -40.1473  -30.2743   13.6747 C.3         1 PAX      -0.0437
     52 H1        -28.2746  -29.0774   23.1719 H           1 PAX       0.0996
     53 H2        -32.3855  -26.2142   21.5481 H           1 PAX       0.1820
     54 H3        -31.7971  -26.2267   23.1202 H           1 PAX       0.1820
     55 H4        -31.0438  -28.2565   17.4400 H           1 PAX       0.1349
     56 H5        -30.3223  -33.2055   15.9022 H           1 PAX       0.0648
     57 H6        -29.0629  -34.0187   16.7812 H           1 PAX       0.0648
     58 H7        -28.5910  -31.6544   15.8486 H           1 PAX       0.0654
     59 H8        -28.3311  -29.2345   17.3642 H           1 PAX       0.0996
     60 H9        -28.3719  -31.2283   19.6811 H           1 PAX       0.0680
     61 H10       -26.4123  -30.5406   20.0238 H           1 PAX       0.2101
     62 H11       -27.5800  -32.8892   18.3144 H           1 PAX       0.0704
     63 H12       -35.7699  -36.6883   17.4801 H           1 PAX       0.0639
     64 H13       -35.9071  -36.8387   15.7552 H           1 PAX       0.0639
     65 H14       -34.2680  -34.4816   16.3249 H           1 PAX       0.0653
     66 H15       -35.9166  -32.4453   15.1787 H           1 PAX       0.0959
     67 H16       -38.0888  -33.9797   16.6820 H           1 PAX       0.0348
     68 H17       -37.4270  -32.3795   17.0889 H           1 PAX       0.0348
     69 H18       -36.5473  -34.7119   18.2021 H           1 PAX       0.0686
     70 H19       -38.1329  -31.1602   15.0213 H           1 PAX       0.1011
     71 H20       -39.2118  -34.1844   11.6928 H           1 PAX       0.2259
     72 H21       -40.6051  -30.2675   14.6670 H           1 PAX       0.0296
     73 H22       -40.9446  -30.1465   12.9418 H           1 PAX       0.0296
     74 H23       -39.4755  -29.4186   13.5926 H           1 PAX       0.0296
@<TRIPOS>BOND
     1     1     2  ar
     2     1     3  ar
     3     1     4   1
     4     8     1   1
     5     4    23   1
     6     5     6  ar
     7     5     7  ar
     8     5     8   1
     9    38     5   1
    10     9    10  ar
    11     9    11  ar
    12     9    12  ar
    13    30     9   1
    14    13    14   1
    15    13    22   1
    16    26    13   1
    17    14    15  ar
    18    14    20  ar
    19    15    16  ar
    20    16    17  ar
    21    18    17  ar
    22    18    19   1
    23    20    18  ar
    24    21    20   1
    25    22    21   2
    26    23    24   1
    27    24    25   1
    28    24    29   1
    29    25    26   1
    30    27    26   1
    31    27    28   1
    32    29    27   1
    33    29    30   1
    34    32    31   1
    35    31    39   1
    36    33    32   1
    37    33    34   1
    38    37    33   1
    39    35    34   1
    40    36    35   1
    41    35    43   1
    42    37    36   1
    43    37    38   1
    44    39    40  ar
    45    39    41  ar
    46    39    42  ar
    47    43    44   1
    48    43    45  am
    49    44    50   2
    50    45    46   2
    51    45    47  am
    52    47    48  am
    53    48    49   2
    54    48    50   1
    55    50    51   1
    56    16    52   1
    57    19    53   1
    58    19    54   1
    59    22    55   1
    60    23    56   1
    61    23    57   1
    62    24    58   1
    63    26    59   1
    64    27    60   1
    65    28    61   1
    66    29    62   1
    67    32    63   1
    68    32    64   1
    69    33    65   1
    70    35    66   1
    71    36    67   1
    72    36    68   1
    73    37    69   1
    74    44    70   1
    75    47    71   1
    76    51    72   1
    77    51    73   1
    78    51    74   1
@<TRIPOS>SUBSTRUCTURE
     1  PAX     14

