@<TRIPOS>MOLECULE
1u1b_ligand_007
    74    78
SMALL
GAST_HUCK
****
This file was generated by PARSER (from files_GN.cpp)

@<TRIPOS>ATOM
      1 PA        -22.5044  -34.7969   14.1606 P.3         1 PAX       0.2972
      2 O1A       -22.0064  -36.0973   13.7532 O.co2       1 PAX      -0.6127
      3 O2A       -22.8195  -34.1233   12.9158 O.co2       1 PAX      -0.6127
      4 O5        -23.8481  -34.9269   14.9470 O.3         1 PAX      -0.2476
      5 PB        -21.0096  -34.2071   16.2827 P.3         1 PAX       0.2974
      6 O1B       -20.3183  -33.0246   16.7440 O.co2       1 PAX      -0.6127
      7 O2B       -22.1477  -34.2366   17.1716 O.co2       1 PAX      -0.6127
      8 O3A       -21.4071  -33.8985   14.8101 O.3         1 PAX      -0.1319
      9 PG        -26.9650  -36.9490   15.1407 P.3         1 PAX       0.2013
     10 O1G       -28.2996  -37.3068   14.7148 O.co2       1 PAX      -0.5537
     11 O2G       -26.1662  -36.5697   13.9964 O.co2       1 PAX      -0.5537
     12 O3G       -26.3744  -38.1533   15.6809 O.co2       1 PAX      -0.5537
     13 N9A       -27.5305  -31.5966   18.2670 N.pl3       1 PAX      -0.1919
     14 C4A       -28.7644  -31.0558   18.2511 C.ar        1 PAX       0.1613
     15 N3A       -29.9522  -31.5284   17.7807 N.ar        1 PAX      -0.2714
     16 C2A       -31.0756  -30.7729   17.8932 C.ar        1 PAX       0.0533
     17 N1A       -31.0185  -29.5468   18.4821 N.ar        1 PAX      -0.2698
     18 C6A       -29.8547  -29.0253   18.9557 C.ar        1 PAX       0.1298
     19 N6A       -29.8607  -27.8035   19.5051 N.pl3       1 PAX      -0.3152
     20 C5A       -28.6858  -29.8016   18.8560 C.ar        1 PAX       0.1045
     21 N7A       -27.4192  -29.5964   19.2487 N.2         1 PAX      -0.2958
     22 C8A       -26.7369  -30.6977   18.8982 C.2         1 PAX       0.1123
     23 C5        -24.5597  -33.6865   15.2064 C.3         1 PAX       0.1131
     24 C4        -25.5835  -33.9072   16.3514 C.3         1 PAX       0.1235
     25 O4        -25.8808  -32.6521   16.9768 O.3         1 PAX      -0.3360
     26 C1        -27.0529  -32.8606   17.7733 C.3         1 PAX       0.2013
     27 C2        -27.9613  -33.6786   16.8272 C.3         1 PAX       0.1432
     28 O2        -28.9156  -34.4407   17.5746 O.3         1 PAX      -0.3832
     29 C3        -26.9697  -34.4995   15.9605 C.3         1 PAX       0.1487
     30 O3        -27.0313  -35.9069   16.2928 O.3         1 PAX      -0.2674
     31 O5        -16.2721  -35.6703   13.4760 O.3         1 PAX      -0.2734
     32 C5        -17.2451  -35.0285   14.3249 C.3         1 PAX       0.1074
     33 C4        -18.2240  -35.9921   15.0624 C.3         1 PAX       0.1209
     34 O4        -17.5512  -37.2417   15.2938 O.3         1 PAX      -0.3391
     35 C1        -17.9395  -37.7509   16.5788 C.3         1 PAX       0.1760
     36 C2        -18.1604  -36.4925   17.4340 C.3         1 PAX       0.0362
     37 C3        -18.7442  -35.4737   16.4379 C.3         1 PAX       0.1284
     38 O3        -20.1909  -35.5100   16.5492 O.3         1 PAX      -0.2441
     39 PD        -16.7193  -36.2873   12.1214 P.3         1 PAX       0.2008
     40 O1D       -15.5256  -36.8000   11.4916 O.co2       1 PAX      -0.5537
     41 O2D       -17.2905  -35.3106   11.2224 O.co2       1 PAX      -0.5537
     42 O3D       -17.6037  -37.4091   12.2986 O.co2       1 PAX      -0.5537
     43 N1T       -16.9648  -38.6530   17.1765 N.am        1 PAX      -0.1736
     44 C6T       -17.4038  -39.6415   18.0139 C.2         1 PAX       0.0524
     45 C2T       -15.6333  -38.5327   16.9759 C.2         1 PAX       0.3265
     46 O2T       -15.1214  -37.6523   16.2976 O.2         1 PAX      -0.3843
     47 N3T       -14.7935  -39.3966   17.5375 N.am        1 PAX      -0.1859
     48 C4T       -15.2225  -40.3759   18.3235 C.2         1 PAX       0.1930
     49 O4T       -14.3796  -41.1245   18.7900 O.2         1 PAX      -0.4079
     50 C5T       -16.5599  -40.5205   18.6046 C.2         1 PAX       0.0225
     51 CM5       -17.0414  -41.5570   19.5122 C.3         1 PAX      -0.0437
     52 H1        -31.9666  -31.1293   17.5473 H           1 PAX       0.0996
     53 H2        -29.0484  -27.4008   19.8434 H           1 PAX       0.1820
     54 H3        -30.6913  -27.3052   19.5498 H           1 PAX       0.1820
     55 H4        -25.7389  -30.8212   19.0847 H           1 PAX       0.1349
     56 H5        -25.0793  -33.3455   14.2997 H           1 PAX       0.0648
     57 H6        -23.8789  -32.8877   15.5340 H           1 PAX       0.0648
     58 H7        -25.1101  -34.5390   17.1137 H           1 PAX       0.0654
     59 H8        -26.7870  -33.4707   18.6458 H           1 PAX       0.0996
     60 H9        -28.5089  -32.9942   16.1693 H           1 PAX       0.0680
     61 H10       -29.4879  -34.8632   16.9002 H           1 PAX       0.2101
     62 H11       -27.2009  -34.2864   14.9096 H           1 PAX       0.0704
     63 H12       -17.8077  -34.2643   13.7769 H           1 PAX       0.0639
     64 H13       -16.6443  -34.5027   15.0695 H           1 PAX       0.0639
     65 H14       -19.0718  -36.1932   14.4014 H           1 PAX       0.0653
     66 H15       -18.8992  -38.2634   16.4200 H           1 PAX       0.0959
     67 H16       -17.2040  -36.1281   17.8311 H           1 PAX       0.0348
     68 H17       -18.8330  -36.6971   18.2722 H           1 PAX       0.0348
     69 H18       -18.3256  -34.4958   16.6997 H           1 PAX       0.0686
     70 H19       -18.3791  -39.6949   18.2145 H           1 PAX       0.1011
     71 H20       -13.8440  -39.3083   17.3745 H           1 PAX       0.2259
     72 H21       -18.1230  -41.5371   19.6574 H           1 PAX       0.0296
     73 H22       -16.5722  -41.4363   20.4896 H           1 PAX       0.0296
     74 H23       -16.7765  -42.5385   19.1171 H           1 PAX       0.0296
@<TRIPOS>BOND
     1     1     2  ar
     2     1     3  ar
     3     1     4   1
     4     8     1   1
     5     4    23   1
     6     5     6  ar
     7     5     7  ar
     8     5     8   1
     9    38     5   1
    10     9    10  ar
    11     9    11  ar
    12     9    12  ar
    13    30     9   1
    14    13    14   1
    15    13    22   1
    16    26    13   1
    17    14    15  ar
    18    14    20  ar
    19    15    16  ar
    20    16    17  ar
    21    18    17  ar
    22    18    19   1
    23    20    18  ar
    24    21    20   1
    25    22    21   2
    26    23    24   1
    27    24    25   1
    28    24    29   1
    29    25    26   1
    30    27    26   1
    31    27    28   1
    32    29    27   1
    33    29    30   1
    34    32    31   1
    35    31    39   1
    36    33    32   1
    37    33    34   1
    38    37    33   1
    39    35    34   1
    40    36    35   1
    41    35    43   1
    42    37    36   1
    43    37    38   1
    44    39    40  ar
    45    39    41  ar
    46    39    42  ar
    47    43    44   1
    48    43    45  am
    49    44    50   2
    50    45    46   2
    51    45    47  am
    52    47    48  am
    53    48    49   2
    54    48    50   1
    55    50    51   1
    56    16    52   1
    57    19    53   1
    58    19    54   1
    59    22    55   1
    60    23    56   1
    61    23    57   1
    62    24    58   1
    63    26    59   1
    64    27    60   1
    65    28    61   1
    66    29    62   1
    67    32    63   1
    68    32    64   1
    69    33    65   1
    70    35    66   1
    71    36    67   1
    72    36    68   1
    73    37    69   1
    74    44    70   1
    75    47    71   1
    76    51    72   1
    77    51    73   1
    78    51    74   1
@<TRIPOS>SUBSTRUCTURE
     1  PAX     14

