@<TRIPOS>MOLECULE
1u1b_ligand_044
    74    78
SMALL
GAST_HUCK
****
This file was generated by PARSER (from files_GN.cpp)

@<TRIPOS>ATOM
      1 PA        -32.0527  -34.2164   14.6613 P.3         1 PAX       0.2972
      2 O1A       -32.1255  -35.5441   15.2193 O.co2       1 PAX      -0.6127
      3 O2A       -33.3802  -33.7457   14.3545 O.co2       1 PAX      -0.6127
      4 O5        -31.4013  -33.2433   15.6914 O.3         1 PAX      -0.2476
      5 PB        -31.3229  -35.2863   12.3123 P.3         1 PAX       0.2974
      6 O1B       -32.4842  -36.1399   12.3548 O.co2       1 PAX      -0.6127
      7 O2B       -31.3952  -34.6487   11.0226 O.co2       1 PAX      -0.6127
      8 O3A       -31.2055  -34.1296   13.3581 O.3         1 PAX      -0.1319
      9 PG        -32.8579  -28.6580   17.0732 P.3         1 PAX       0.2013
     10 O1G       -33.8039  -29.2036   16.1350 O.co2       1 PAX      -0.5537
     11 O2G       -33.5939  -27.8339   17.9959 O.co2       1 PAX      -0.5537
     12 O3G       -31.9077  -27.8218   16.3858 O.co2       1 PAX      -0.5537
     13 N9A       -27.9888  -31.2136   18.7233 N.pl3       1 PAX      -0.1919
     14 C4A       -27.1814  -32.2677   18.5099 C.ar        1 PAX       0.1613
     15 N3A       -27.4355  -33.5294   18.0767 N.ar        1 PAX      -0.2714
     16 C2A       -26.4170  -34.4231   17.9497 C.ar        1 PAX       0.0533
     17 N1A       -25.1400  -34.0493   18.2439 N.ar        1 PAX      -0.2698
     18 C6A       -24.8382  -32.7998   18.6862 C.ar        1 PAX       0.1298
     19 N6A       -23.5642  -32.4849   18.9631 N.pl3       1 PAX      -0.3152
     20 C5A       -25.8850  -31.8737   18.8369 C.ar        1 PAX       0.1045
     21 N7A       -25.9207  -30.6036   19.2665 N.2         1 PAX      -0.2958
     22 C8A       -27.2041  -30.2150   19.1852 C.2         1 PAX       0.1123
     23 C5        -31.8984  -33.3069   17.0507 C.3         1 PAX       0.1131
     24 C4        -31.3805  -32.1169   17.9014 C.3         1 PAX       0.1235
     25 O4        -30.0566  -32.3955   18.3850 O.3         1 PAX      -0.3360
     26 C1        -29.4105  -31.1249   18.5588 C.3         1 PAX       0.2013
     27 C2        -29.8360  -30.3592   17.2943 C.3         1 PAX       0.1432
     28 O2        -29.5932  -28.9570   17.3766 O.3         1 PAX      -0.3832
     29 C3        -31.3287  -30.7344   17.1763 C.3         1 PAX       0.1487
     30 O3        -32.1834  -29.8005   17.8859 O.3         1 PAX      -0.2674
     31 O5        -27.2544  -33.1102   14.6968 O.3         1 PAX      -0.2734
     32 C5        -27.5972  -34.5106   14.6116 C.3         1 PAX       0.1074
     33 C4        -28.1321  -34.9880   13.2264 C.3         1 PAX       0.1209
     34 O4        -27.0467  -35.4228   12.3836 O.3         1 PAX      -0.3391
     35 C1        -27.1140  -36.8500   12.1518 C.3         1 PAX       0.1760
     36 C2        -28.1647  -37.3626   13.1605 C.3         1 PAX       0.0362
     37 C3        -29.1196  -36.1782   13.3097 C.3         1 PAX       0.1284
     38 O3        -30.0539  -36.1852   12.2050 O.3         1 PAX      -0.2441
     39 PD        -25.9987  -32.5938   13.9339 P.3         1 PAX       0.2008
     40 O1D       -25.7967  -31.2185   14.3099 O.co2       1 PAX      -0.5537
     41 O2D       -26.2238  -32.5978   12.5115 O.co2       1 PAX      -0.5537
     42 O3D       -24.7932  -33.3170   14.2483 O.co2       1 PAX      -0.5537
     43 N1T       -25.8451  -37.5715   12.2251 N.am        1 PAX      -0.1736
     44 C6T       -24.6762  -36.9198   12.5119 C.2         1 PAX       0.0524
     45 C2T       -25.7814  -38.9016   11.9992 C.2         1 PAX       0.3265
     46 O2T       -26.7443  -39.5839   11.6744 O.2         1 PAX      -0.3843
     47 N3T       -24.6313  -39.5548   12.1454 N.am        1 PAX      -0.1859
     48 C4T       -23.5069  -38.9311   12.4802 C.2         1 PAX       0.1930
     49 O4T       -22.5233  -39.6329   12.6717 O.2         1 PAX      -0.4079
     50 C5T       -23.4900  -37.5632   12.6311 C.2         1 PAX       0.0225
     51 CM5       -22.2717  -36.7903   12.8603 C.3         1 PAX      -0.0437
     52 H1        -26.6100  -35.3709   17.6270 H           1 PAX       0.0996
     53 H2        -23.3389  -31.5916   19.2576 H           1 PAX       0.1820
     54 H3        -22.8652  -33.1486   18.8525 H           1 PAX       0.1820
     55 H4        -27.5285  -29.2844   19.4594 H           1 PAX       0.1349
     56 H5        -31.5494  -34.2310   17.5138 H           1 PAX       0.0648
     57 H6        -32.9932  -33.2968   17.0854 H           1 PAX       0.0648
     58 H7        -32.0215  -32.0499   18.7897 H           1 PAX       0.0654
     59 H8        -29.8268  -30.6440   19.4542 H           1 PAX       0.0996
     60 H9        -29.2945  -30.7556   16.4285 H           1 PAX       0.0680
     61 H10       -28.6437  -28.8320   17.1652 H           1 PAX       0.2101
     62 H11       -31.5948  -30.8348   16.1193 H           1 PAX       0.0704
     63 H12       -28.3913  -34.6352   15.3485 H           1 PAX       0.0639
     64 H13       -26.7682  -35.1437   14.9410 H           1 PAX       0.0639
     65 H14       -28.6147  -34.1327   12.7433 H           1 PAX       0.0653
     66 H15       -27.5119  -36.9701   11.1387 H           1 PAX       0.0959
     67 H16       -27.6888  -37.5911   14.1205 H           1 PAX       0.0348
     68 H17       -28.6893  -38.2530   12.8051 H           1 PAX       0.0348
     69 H18       -29.6284  -36.2593   14.2768 H           1 PAX       0.0686
     70 H19       -24.6821  -35.9324   12.6214 H           1 PAX       0.1011
     71 H20       -24.6186  -40.5180   12.0189 H           1 PAX       0.2259
     72 H21       -22.1061  -36.1104   12.0217 H           1 PAX       0.0296
     73 H22       -21.3844  -37.4161   12.9618 H           1 PAX       0.0296
     74 H23       -22.3706  -36.1991   13.7727 H           1 PAX       0.0296
@<TRIPOS>BOND
     1     1     2  ar
     2     1     3  ar
     3     1     4   1
     4     8     1   1
     5     4    23   1
     6     5     6  ar
     7     5     7  ar
     8     5     8   1
     9    38     5   1
    10     9    10  ar
    11     9    11  ar
    12     9    12  ar
    13    30     9   1
    14    13    14   1
    15    13    22   1
    16    26    13   1
    17    14    15  ar
    18    14    20  ar
    19    15    16  ar
    20    16    17  ar
    21    18    17  ar
    22    18    19   1
    23    20    18  ar
    24    21    20   1
    25    22    21   2
    26    23    24   1
    27    24    25   1
    28    24    29   1
    29    25    26   1
    30    27    26   1
    31    27    28   1
    32    29    27   1
    33    29    30   1
    34    32    31   1
    35    31    39   1
    36    33    32   1
    37    33    34   1
    38    37    33   1
    39    35    34   1
    40    36    35   1
    41    35    43   1
    42    37    36   1
    43    37    38   1
    44    39    40  ar
    45    39    41  ar
    46    39    42  ar
    47    43    44   1
    48    43    45  am
    49    44    50   2
    50    45    46   2
    51    45    47  am
    52    47    48  am
    53    48    49   2
    54    48    50   1
    55    50    51   1
    56    16    52   1
    57    19    53   1
    58    19    54   1
    59    22    55   1
    60    23    56   1
    61    23    57   1
    62    24    58   1
    63    26    59   1
    64    27    60   1
    65    28    61   1
    66    29    62   1
    67    32    63   1
    68    32    64   1
    69    33    65   1
    70    35    66   1
    71    36    67   1
    72    36    68   1
    73    37    69   1
    74    44    70   1
    75    47    71   1
    76    51    72   1
    77    51    73   1
    78    51    74   1
@<TRIPOS>SUBSTRUCTURE
     1  PAX     14

