@<TRIPOS>MOLECULE
1u1b_ligand_003
    74    78
SMALL
GAST_HUCK
****
This file was generated by PARSER (from files_GN.cpp)

@<TRIPOS>ATOM
      1 PA        -31.9511  -32.3683   17.4781 P.3         1 PAX       0.2972
      2 O1A       -31.9454  -31.1457   18.2498 O.co2       1 PAX      -0.6127
      3 O2A       -31.8769  -31.9344   16.1083 O.co2       1 PAX      -0.6127
      4 O5        -30.7430  -33.2789   17.9043 O.3         1 PAX      -0.2476
      5 PB        -33.8547  -33.5628   18.9251 P.3         1 PAX       0.2974
      6 O1B       -32.9460  -34.4132   19.6531 O.co2       1 PAX      -0.6127
      7 O2B       -34.1656  -32.4385   19.7703 O.co2       1 PAX      -0.6127
      8 O3A       -33.3327  -33.0819   17.5447 O.3         1 PAX      -0.1319
      9 PG        -24.8459  -32.3383   17.5055 P.3         1 PAX       0.2013
     10 O1G       -24.8616  -33.7737   17.6750 O.co2       1 PAX      -0.5537
     11 O2G       -23.9080  -32.0645   16.4443 O.co2       1 PAX      -0.5537
     12 O3G       -24.3037  -31.7309   18.6947 O.co2       1 PAX      -0.5537
     13 N9A       -29.5544  -29.1267   18.8778 N.pl3       1 PAX      -0.1919
     14 C4A       -29.5010  -28.8214   20.1940 C.ar        1 PAX       0.1613
     15 N3A       -28.6402  -29.1958   21.1766 N.ar        1 PAX      -0.2714
     16 C2A       -28.7968  -28.7363   22.4444 C.ar        1 PAX       0.0533
     17 N1A       -29.8180  -27.8857   22.7379 N.ar        1 PAX      -0.2698
     18 C6A       -30.7037  -27.4735   21.7927 C.ar        1 PAX       0.1298
     19 N6A       -31.6789  -26.6158   22.1268 N.pl3       1 PAX      -0.3152
     20 C5A       -30.5506  -27.9474   20.4751 C.ar        1 PAX       0.1045
     21 N7A       -31.2260  -27.7170   19.3425 N.2         1 PAX      -0.2958
     22 C8A       -30.6045  -28.4314   18.3818 C.2         1 PAX       0.1123
     23 C5        -29.5623  -33.3408   17.0610 C.3         1 PAX       0.1131
     24 C4        -28.6731  -32.0541   16.9911 C.3         1 PAX       0.1235
     25 O4        -29.4692  -30.9012   17.3069 O.3         1 PAX      -0.3360
     26 C1        -28.6927  -29.9774   18.0846 C.3         1 PAX       0.2013
     27 C2        -27.7065  -30.8704   18.8610 C.3         1 PAX       0.1432
     28 O2        -26.5706  -30.1095   19.2699 O.3         1 PAX      -0.3832
     29 C3        -27.4012  -32.0292   17.8934 C.3         1 PAX       0.1487
     30 O3        -26.2318  -31.7741   17.0686 O.3         1 PAX      -0.2674
     31 O5        -32.9006  -37.0329   19.6065 O.3         1 PAX      -0.2734
     32 C5        -33.5687  -37.6053   18.4597 C.3         1 PAX       0.1074
     33 C4        -34.1202  -36.4691   17.5596 C.3         1 PAX       0.1209
     34 O4        -34.6069  -37.0668   16.3488 O.3         1 PAX      -0.3391
     35 C1        -35.6633  -36.2435   15.8390 C.3         1 PAX       0.1760
     36 C2        -36.3938  -35.7253   17.0950 C.3         1 PAX       0.0362
     37 C3        -35.3104  -35.6726   18.1962 C.3         1 PAX       0.1284
     38 O3        -35.2027  -34.3021   18.6664 O.3         1 PAX      -0.2441
     39 PD        -33.0939  -37.7240   20.9844 P.3         1 PAX       0.2008
     40 O1D       -31.9933  -37.3205   21.8228 O.co2       1 PAX      -0.5537
     41 O2D       -33.0901  -39.1621   20.9135 O.co2       1 PAX      -0.5537
     42 O3D       -34.3076  -37.2546   21.6151 O.co2       1 PAX      -0.5537
     43 N1T       -36.5479  -36.9448   14.9165 N.am        1 PAX      -0.1736
     44 C6T       -36.6959  -38.3042   14.9866 C.2         1 PAX       0.0524
     45 C2T       -37.2626  -36.2782   13.9872 C.2         1 PAX       0.3265
     46 O2T       -37.2321  -35.0618   13.8577 O.2         1 PAX      -0.3843
     47 N3T       -38.0479  -36.9407   13.1423 N.am        1 PAX      -0.1859
     48 C4T       -38.1677  -38.2643   13.1893 C.2         1 PAX       0.1930
     49 O4T       -38.9119  -38.7790   12.3656 O.2         1 PAX      -0.4079
     50 C5T       -37.4851  -38.9976   14.1329 C.2         1 PAX       0.0225
     51 CM5       -37.5812  -40.4489   14.2502 C.3         1 PAX      -0.0437
     52 H1        -28.1519  -29.0366   23.1702 H           1 PAX       0.0996
     53 H2        -32.3166  -26.3129   21.4628 H           1 PAX       0.1820
     54 H3        -31.7218  -26.2665   23.0323 H           1 PAX       0.1820
     55 H4        -30.9099  -28.4454   17.4036 H           1 PAX       0.1349
     56 H5        -29.8409  -33.6437   16.0472 H           1 PAX       0.0648
     57 H6        -28.9610  -34.1641   17.4486 H           1 PAX       0.0648
     58 H7        -28.3534  -31.9386   15.9470 H           1 PAX       0.0654
     59 H8        -28.1351  -29.3363   17.3922 H           1 PAX       0.0996
     60 H9        -28.1975  -31.2912   19.7460 H           1 PAX       0.0680
     61 H10       -26.2536  -30.5547   20.0790 H           1 PAX       0.2101
     62 H11       -27.3097  -32.9636   18.4617 H           1 PAX       0.0704
     63 H12       -34.3969  -38.2901   18.6939 H           1 PAX       0.0639
     64 H13       -32.8262  -38.1752   17.8908 H           1 PAX       0.0639
     65 H14       -33.2941  -35.8134   17.2740 H           1 PAX       0.0653
     66 H15       -35.1766  -35.4017   15.3271 H           1 PAX       0.0959
     67 H16       -37.1897  -36.4192   17.3841 H           1 PAX       0.0348
     68 H17       -36.8406  -34.7458   16.8989 H           1 PAX       0.0348
     69 H18       -35.6940  -36.2265   19.0588 H           1 PAX       0.0686
     70 H19       -36.2121  -38.8120   15.6937 H           1 PAX       0.1011
     71 H20       -38.5461  -36.4467   12.4728 H           1 PAX       0.2259
     72 H21       -36.5937  -40.8970   14.1180 H           1 PAX       0.0296
     73 H22       -38.2478  -40.8953   13.5099 H           1 PAX       0.0296
     74 H23       -37.9570  -40.7181   15.2393 H           1 PAX       0.0296
@<TRIPOS>BOND
     1     1     2  ar
     2     1     3  ar
     3     1     4   1
     4     8     1   1
     5     4    23   1
     6     5     6  ar
     7     5     7  ar
     8     5     8   1
     9    38     5   1
    10     9    10  ar
    11     9    11  ar
    12     9    12  ar
    13    30     9   1
    14    13    14   1
    15    13    22   1
    16    26    13   1
    17    14    15  ar
    18    14    20  ar
    19    15    16  ar
    20    16    17  ar
    21    18    17  ar
    22    18    19   1
    23    20    18  ar
    24    21    20   1
    25    22    21   2
    26    23    24   1
    27    24    25   1
    28    24    29   1
    29    25    26   1
    30    27    26   1
    31    27    28   1
    32    29    27   1
    33    29    30   1
    34    32    31   1
    35    31    39   1
    36    33    32   1
    37    33    34   1
    38    37    33   1
    39    35    34   1
    40    36    35   1
    41    35    43   1
    42    37    36   1
    43    37    38   1
    44    39    40  ar
    45    39    41  ar
    46    39    42  ar
    47    43    44   1
    48    43    45  am
    49    44    50   2
    50    45    46   2
    51    45    47  am
    52    47    48  am
    53    48    49   2
    54    48    50   1
    55    50    51   1
    56    16    52   1
    57    19    53   1
    58    19    54   1
    59    22    55   1
    60    23    56   1
    61    23    57   1
    62    24    58   1
    63    26    59   1
    64    27    60   1
    65    28    61   1
    66    29    62   1
    67    32    63   1
    68    32    64   1
    69    33    65   1
    70    35    66   1
    71    36    67   1
    72    36    68   1
    73    37    69   1
    74    44    70   1
    75    47    71   1
    76    51    72   1
    77    51    73   1
    78    51    74   1
@<TRIPOS>SUBSTRUCTURE
     1  PAX     14

