@<TRIPOS>MOLECULE
1u1b_ligand_048
    74    78
SMALL
GAST_HUCK
****
This file was generated by PARSER (from files_GN.cpp)

@<TRIPOS>ATOM
      1 PA        -31.7648  -29.5005   16.8713 P.3         1 PAX       0.2972
      2 O1A       -30.5974  -29.6218   17.7077 O.co2       1 PAX      -0.6127
      3 O2A       -31.5693  -28.2591   16.1621 O.co2       1 PAX      -0.6127
      4 O5        -31.7678  -30.8046   16.0105 O.3         1 PAX      -0.2476
      5 PB        -34.3495  -29.1464   17.2837 P.3         1 PAX       0.2974
      6 O1B       -35.1331  -28.5058   18.3131 O.co2       1 PAX      -0.6127
      7 O2B       -34.3610  -28.2025   16.1954 O.co2       1 PAX      -0.6127
      8 O3A       -32.9320  -29.3818   17.8924 O.3         1 PAX      -0.1319
      9 PG        -34.1162  -34.3312   12.6683 P.3         1 PAX       0.2013
     10 O1G       -35.1942  -33.4341   13.0082 O.co2       1 PAX      -0.5537
     11 O2G       -34.2759  -34.6551   11.2686 O.co2       1 PAX      -0.5537
     12 O3G       -34.2597  -35.5699   13.3886 O.co2       1 PAX      -0.5537
     13 N9A       -29.2561  -34.4447   15.5781 N.pl3       1 PAX      -0.1919
     14 C4A       -28.9007  -33.8782   16.7477 C.ar        1 PAX       0.1613
     15 N3A       -29.3244  -32.7481   17.3702 N.ar        1 PAX      -0.2714
     16 C2A       -28.7769  -32.3895   18.5645 C.ar        1 PAX       0.0533
     17 N1A       -27.8057  -33.1558   19.1301 N.ar        1 PAX      -0.2698
     18 C6A       -27.3444  -34.2926   18.5394 C.ar        1 PAX       0.1298
     19 N6A       -26.3846  -35.0103   19.1388 N.pl3       1 PAX      -0.3152
     20 C5A       -27.9063  -34.6754   17.3106 C.ar        1 PAX       0.1045
     21 N7A       -27.6775  -35.7146   16.4945 N.2         1 PAX      -0.2958
     22 C8A       -28.5026  -35.5611   15.4455 C.2         1 PAX       0.1123
     23 C5        -31.5127  -30.6494   14.5967 C.3         1 PAX       0.1131
     24 C4        -31.2667  -32.0165   13.9085 C.3         1 PAX       0.1235
     25 O4        -30.0241  -32.5561   14.3874 O.3         1 PAX      -0.3360
     26 C1        -30.2099  -33.9562   14.6254 C.3         1 PAX       0.2013
     27 C2        -31.6754  -34.0820   15.0769 C.3         1 PAX       0.1432
     28 O2        -32.1278  -35.4341   15.0079 O.3         1 PAX      -0.3832
     29 C3        -32.3779  -33.0836   14.1285 C.3         1 PAX       0.1487
     30 O3        -32.7118  -33.6790   12.8453 O.3         1 PAX      -0.2674
     31 O5        -34.3277  -32.3266   21.2284 O.3         1 PAX      -0.2734
     32 C5        -35.3016  -31.8922   20.2593 C.3         1 PAX       0.1074
     33 C4        -34.7612  -31.9761   18.8079 C.3         1 PAX       0.1209
     34 O4        -34.6345  -33.3547   18.4659 O.3         1 PAX      -0.3391
     35 C1        -35.0721  -33.5668   17.1162 C.3         1 PAX       0.1760
     36 C2        -36.2347  -32.5564   17.0148 C.3         1 PAX       0.0362
     37 C3        -35.7015  -31.3259   17.7558 C.3         1 PAX       0.1284
     38 O3        -35.0230  -30.4699   16.7973 O.3         1 PAX      -0.2441
     39 PD        -34.2585  -33.8208   21.6656 P.3         1 PAX       0.2008
     40 O1D       -33.1008  -34.4815   21.1066 O.co2       1 PAX      -0.5537
     41 O2D       -35.4487  -34.5877   21.4061 O.co2       1 PAX      -0.5537
     42 O3D       -34.0704  -33.7857   23.0961 O.co2       1 PAX      -0.5537
     43 N1T       -35.3100  -34.9787   16.8588 N.am        1 PAX      -0.1736
     44 C6T       -34.5164  -35.8976   17.4996 C.2         1 PAX       0.0524
     45 C2T       -36.1957  -35.4458   15.9539 C.2         1 PAX       0.3265
     46 O2T       -36.8977  -34.7318   15.2528 O.2         1 PAX      -0.3843
     47 N3T       -36.3297  -36.7454   15.7525 N.am        1 PAX      -0.1859
     48 C4T       -35.5930  -37.6379   16.4103 C.2         1 PAX       0.1930
     49 O4T       -35.7942  -38.8170   16.1504 O.2         1 PAX      -0.4079
     50 C5T       -34.6513  -37.2310   17.3217 C.2         1 PAX       0.0225
     51 CM5       -33.8369  -38.1908   18.0619 C.3         1 PAX      -0.0437
     52 H1        -29.0932  -31.5442   19.0388 H           1 PAX       0.0996
     53 H2        -26.0464  -35.8213   18.7276 H           1 PAX       0.1820
     54 H3        -26.0365  -34.7310   19.9987 H           1 PAX       0.1820
     55 H4        -28.5465  -36.2084   14.6548 H           1 PAX       0.1349
     56 H5        -30.6239  -30.0343   14.4145 H           1 PAX       0.0648
     57 H6        -32.3722  -30.1589   14.1253 H           1 PAX       0.0648
     58 H7        -31.1479  -31.8196   12.8398 H           1 PAX       0.0654
     59 H8        -30.0847  -34.4839   13.6696 H           1 PAX       0.0996
     60 H9        -31.7739  -33.7440   16.1132 H           1 PAX       0.0680
     61 H10       -33.0687  -35.3964   15.2796 H           1 PAX       0.2101
     62 H11       -33.2459  -32.6249   14.6112 H           1 PAX       0.0704
     63 H12       -35.4919  -30.8405   20.4954 H           1 PAX       0.0639
     64 H13       -36.2579  -32.4253   20.3562 H           1 PAX       0.0639
     65 H14       -33.7689  -31.5198   18.7723 H           1 PAX       0.0653
     66 H15       -34.2755  -33.2417   16.4522 H           1 PAX       0.0959
     67 H16       -37.1197  -32.9538   17.5230 H           1 PAX       0.0348
     68 H17       -36.4944  -32.3161   15.9831 H           1 PAX       0.0348
     69 H18       -36.5466  -30.7891   18.2090 H           1 PAX       0.0686
     70 H19       -33.8035  -35.5832   18.1240 H           1 PAX       0.1011
     71 H20       -36.9751  -37.0537   15.0956 H           1 PAX       0.2259
     72 H21       -33.1930  -37.7143   18.8034 H           1 PAX       0.0296
     73 H22       -33.1974  -38.7465   17.3770 H           1 PAX       0.0296
     74 H23       -34.4829  -38.8938   18.5892 H           1 PAX       0.0296
@<TRIPOS>BOND
     1     1     2  ar
     2     1     3  ar
     3     1     4   1
     4     8     1   1
     5     4    23   1
     6     5     6  ar
     7     5     7  ar
     8     5     8   1
     9    38     5   1
    10     9    10  ar
    11     9    11  ar
    12     9    12  ar
    13    30     9   1
    14    13    14   1
    15    13    22   1
    16    26    13   1
    17    14    15  ar
    18    14    20  ar
    19    15    16  ar
    20    16    17  ar
    21    18    17  ar
    22    18    19   1
    23    20    18  ar
    24    21    20   1
    25    22    21   2
    26    23    24   1
    27    24    25   1
    28    24    29   1
    29    25    26   1
    30    27    26   1
    31    27    28   1
    32    29    27   1
    33    29    30   1
    34    32    31   1
    35    31    39   1
    36    33    32   1
    37    33    34   1
    38    37    33   1
    39    35    34   1
    40    36    35   1
    41    35    43   1
    42    37    36   1
    43    37    38   1
    44    39    40  ar
    45    39    41  ar
    46    39    42  ar
    47    43    44   1
    48    43    45  am
    49    44    50   2
    50    45    46   2
    51    45    47  am
    52    47    48  am
    53    48    49   2
    54    48    50   1
    55    50    51   1
    56    16    52   1
    57    19    53   1
    58    19    54   1
    59    22    55   1
    60    23    56   1
    61    23    57   1
    62    24    58   1
    63    26    59   1
    64    27    60   1
    65    28    61   1
    66    29    62   1
    67    32    63   1
    68    32    64   1
    69    33    65   1
    70    35    66   1
    71    36    67   1
    72    36    68   1
    73    37    69   1
    74    44    70   1
    75    47    71   1
    76    51    72   1
    77    51    73   1
    78    51    74   1
@<TRIPOS>SUBSTRUCTURE
     1  PAX     14

