@<TRIPOS>MOLECULE
1u1b_ligand_082
    74    78
SMALL
GAST_HUCK
****
This file was generated by PARSER (from files_GN.cpp)

@<TRIPOS>ATOM
      1 PA        -33.7160  -32.2433   17.5772 P.3         1 PAX       0.2972
      2 O1A       -34.4923  -31.2125   18.2219 O.co2       1 PAX      -0.6127
      3 O2A       -33.4286  -33.2493   18.5746 O.co2       1 PAX      -0.6127
      4 O5        -34.6402  -32.8316   16.4709 O.3         1 PAX      -0.2476
      5 PB        -31.5392  -30.6444   17.7058 P.3         1 PAX       0.2974
      6 O1B       -32.3162  -29.4371   17.8755 O.co2       1 PAX      -0.6127
      7 O2B       -31.0671  -31.1377   18.9789 O.co2       1 PAX      -0.6127
      8 O3A       -32.3969  -31.7089   16.9348 O.3         1 PAX      -0.1319
      9 PG        -33.9523  -36.6917   12.5964 P.3         1 PAX       0.2013
     10 O1G       -33.4003  -35.3776   12.3630 O.co2       1 PAX      -0.5537
     11 O2G       -32.9688  -37.6574   12.1628 O.co2       1 PAX      -0.5537
     12 O3G       -35.1196  -36.8699   11.7628 O.co2       1 PAX      -0.5537
     13 N9A       -34.8020  -36.4659   18.5015 N.pl3       1 PAX      -0.1919
     14 C4A       -34.4590  -37.3574   19.4490 C.ar        1 PAX       0.1613
     15 N3A       -33.6811  -38.4692   19.4054 N.ar        1 PAX      -0.2714
     16 C2A       -33.4590  -39.1866   20.5399 C.ar        1 PAX       0.0533
     17 N1A       -34.0113  -38.7926   21.7213 N.ar        1 PAX      -0.2698
     18 C6A       -34.7979  -37.6815   21.8119 C.ar        1 PAX       0.1298
     19 N6A       -35.2983  -37.2955   22.9939 N.pl3       1 PAX      -0.3152
     20 C5A       -35.0375  -36.9373   20.6444 C.ar        1 PAX       0.1045
     21 N7A       -35.7177  -35.8087   20.4236 N.2         1 PAX      -0.2958
     22 C8A       -35.5636  -35.5289   19.1116 C.2         1 PAX       0.1123
     23 C5        -34.0593  -33.4530   15.3002 C.3         1 PAX       0.1131
     24 C4        -33.7805  -34.9816   15.4396 C.3         1 PAX       0.1235
     25 O4        -33.5927  -35.3336   16.8243 O.3         1 PAX      -0.3360
     26 C1        -34.3948  -36.4840   17.1242 C.3         1 PAX       0.2013
     27 C2        -35.5576  -36.4484   16.1171 C.3         1 PAX       0.1432
     28 O2        -36.1751  -37.7184   15.9449 O.3         1 PAX      -0.3832
     29 C3        -34.8877  -35.9068   14.8476 C.3         1 PAX       0.1487
     30 O3        -34.2998  -36.9813   14.0803 O.3         1 PAX      -0.2674
     31 O5        -28.4856  -30.8550   19.3524 O.3         1 PAX      -0.2734
     32 C5        -27.9693  -29.5559   18.9952 C.3         1 PAX       0.1074
     33 C4        -29.0720  -28.7839   18.2181 C.3         1 PAX       0.1209
     34 O4        -28.6848  -27.4269   17.9398 O.3         1 PAX      -0.3391
     35 C1        -29.6354  -26.9283   16.9805 C.3         1 PAX       0.1760
     36 C2        -29.8977  -28.1073   16.0059 C.3         1 PAX       0.0362
     37 C3        -29.4395  -29.3424   16.8192 C.3         1 PAX       0.1284
     38 O3        -30.3194  -30.4792   16.7569 O.3         1 PAX      -0.2441
     39 PD        -27.9912  -32.1104   18.5934 P.3         1 PAX       0.2008
     40 O1D       -28.9781  -33.1519   18.7737 O.co2       1 PAX      -0.5537
     41 O2D       -26.7408  -32.5870   19.1369 O.co2       1 PAX      -0.5537
     42 O3D       -27.8372  -31.9061   17.1686 O.co2       1 PAX      -0.5537
     43 N1T       -29.1903  -25.6400   16.4477 N.am        1 PAX      -0.1736
     44 C6T       -28.3253  -25.5587   15.3812 C.2         1 PAX       0.0524
     45 C2T       -29.5505  -24.4860   17.0540 C.2         1 PAX       0.3265
     46 O2T       -30.2666  -24.4163   18.0452 O.2         1 PAX      -0.3843
     47 N3T       -29.1023  -23.3218   16.6059 N.am        1 PAX      -0.1859
     48 C4T       -28.2869  -23.2400   15.5650 C.2         1 PAX       0.1930
     49 O4T       -27.9123  -22.1239   15.2368 O.2         1 PAX      -0.4079
     50 C5T       -27.8778  -24.3698   14.9000 C.2         1 PAX       0.0225
     51 CM5       -27.0055  -24.2804   13.7317 C.3         1 PAX      -0.0437
     52 H1        -32.8700  -40.0207   20.5080 H           1 PAX       0.0996
     53 H2        -35.8588  -36.5040   23.0503 H           1 PAX       0.1820
     54 H3        -35.0601  -37.7731   23.8016 H           1 PAX       0.1820
     55 H4        -35.9663  -34.7066   18.6658 H           1 PAX       0.1349
     56 H5        -33.1509  -32.9513   14.9568 H           1 PAX       0.0648
     57 H6        -34.7778  -33.2944   14.4965 H           1 PAX       0.0648
     58 H7        -32.8318  -35.1914   14.9376 H           1 PAX       0.0654
     59 H8        -33.7814  -37.3705   16.9239 H           1 PAX       0.0996
     60 H9        -36.3194  -35.7341   16.4426 H           1 PAX       0.0680
     61 H10       -36.5911  -37.9144   16.8105 H           1 PAX       0.2101
     62 H11       -35.6493  -35.3700   14.2722 H           1 PAX       0.0704
     63 H12       -27.0299  -29.5724   18.4319 H           1 PAX       0.0639
     64 H13       -27.7694  -29.0226   19.9268 H           1 PAX       0.0639
     65 H14       -29.9540  -28.7519   18.8668 H           1 PAX       0.0653
     66 H15       -30.5837  -26.7904   17.5166 H           1 PAX       0.0959
     67 H16       -29.3213  -28.0084   15.0825 H           1 PAX       0.0348
     68 H17       -30.9536  -28.1564   15.7290 H           1 PAX       0.0348
     69 H18       -28.5086  -29.6855   16.3602 H           1 PAX       0.0686
     70 H19       -28.0126  -26.4090   14.9540 H           1 PAX       0.1011
     71 H20       -29.3688  -22.5057   17.0503 H           1 PAX       0.2259
     72 H21       -26.7750  -25.2528   13.2886 H           1 PAX       0.0296
     73 H22       -26.0646  -23.8083   14.0156 H           1 PAX       0.0296
     74 H23       -27.4823  -23.6698   12.9632 H           1 PAX       0.0296
@<TRIPOS>BOND
     1     1     2  ar
     2     1     3  ar
     3     1     4   1
     4     8     1   1
     5     4    23   1
     6     5     6  ar
     7     5     7  ar
     8     5     8   1
     9    38     5   1
    10     9    10  ar
    11     9    11  ar
    12     9    12  ar
    13    30     9   1
    14    13    14   1
    15    13    22   1
    16    26    13   1
    17    14    15  ar
    18    14    20  ar
    19    15    16  ar
    20    16    17  ar
    21    18    17  ar
    22    18    19   1
    23    20    18  ar
    24    21    20   1
    25    22    21   2
    26    23    24   1
    27    24    25   1
    28    24    29   1
    29    25    26   1
    30    27    26   1
    31    27    28   1
    32    29    27   1
    33    29    30   1
    34    32    31   1
    35    31    39   1
    36    33    32   1
    37    33    34   1
    38    37    33   1
    39    35    34   1
    40    36    35   1
    41    35    43   1
    42    37    36   1
    43    37    38   1
    44    39    40  ar
    45    39    41  ar
    46    39    42  ar
    47    43    44   1
    48    43    45  am
    49    44    50   2
    50    45    46   2
    51    45    47  am
    52    47    48  am
    53    48    49   2
    54    48    50   1
    55    50    51   1
    56    16    52   1
    57    19    53   1
    58    19    54   1
    59    22    55   1
    60    23    56   1
    61    23    57   1
    62    24    58   1
    63    26    59   1
    64    27    60   1
    65    28    61   1
    66    29    62   1
    67    32    63   1
    68    32    64   1
    69    33    65   1
    70    35    66   1
    71    36    67   1
    72    36    68   1
    73    37    69   1
    74    44    70   1
    75    47    71   1
    76    51    72   1
    77    51    73   1
    78    51    74   1
@<TRIPOS>SUBSTRUCTURE
     1  PAX     14

