@<TRIPOS>MOLECULE
1u1b_ligand_008
    74    78
SMALL
GAST_HUCK
****
This file was generated by PARSER (from files_GN.cpp)

@<TRIPOS>ATOM
      1 PA        -31.3642  -32.1611   18.1757 P.3         1 PAX       0.2972
      2 O1A       -31.2901  -31.5484   19.4808 O.co2       1 PAX      -0.6127
      3 O2A       -31.3320  -31.0315   17.2728 O.co2       1 PAX      -0.6127
      4 O5        -30.1292  -33.1112   18.0022 O.3         1 PAX      -0.2476
      5 PB        -33.6430  -33.4267   18.8508 P.3         1 PAX       0.2974
      6 O1B       -32.9841  -34.4062   19.6797 O.co2       1 PAX      -0.6127
      7 O2B       -34.0526  -32.3608   19.7315 O.co2       1 PAX      -0.6127
      8 O3A       -32.6927  -32.8571   17.7618 O.3         1 PAX      -0.1319
      9 PG        -24.6996  -32.3196   17.0268 P.3         1 PAX       0.2013
     10 O1G       -24.8902  -33.7410   16.8729 O.co2       1 PAX      -0.5537
     11 O2G       -23.7745  -31.9163   15.9957 O.co2       1 PAX      -0.5537
     12 O3G       -24.0756  -32.0420   18.2982 O.co2       1 PAX      -0.5537
     13 N9A       -29.3960  -29.1341   18.7642 N.pl3       1 PAX      -0.1919
     14 C4A       -29.3087  -28.7881   20.0673 C.ar        1 PAX       0.1613
     15 N3A       -28.3538  -29.0140   21.0111 N.ar        1 PAX      -0.2714
     16 C2A       -28.4950  -28.5287   22.2726 C.ar        1 PAX       0.0533
     17 N1A       -29.5978  -27.8005   22.6031 N.ar        1 PAX      -0.2698
     18 C6A       -30.5814  -27.5380   21.6986 C.ar        1 PAX       0.1298
     19 N6A       -31.6205  -26.7721   22.0655 N.pl3       1 PAX      -0.3152
     20 C5A       -30.4405  -28.0405   20.3940 C.ar        1 PAX       0.1045
     21 N7A       -31.1957  -27.9202   19.2930 N.2         1 PAX      -0.2958
     22 C8A       -30.5464  -28.5762   18.3141 C.2         1 PAX       0.1123
     23 C5        -29.3866  -33.0763   16.7563 C.3         1 PAX       0.1131
     24 C4        -28.4312  -31.8498   16.6408 C.3         1 PAX       0.1235
     25 O4        -29.1550  -30.6419   16.9244 O.3         1 PAX      -0.3360
     26 C1        -28.4706  -29.8763   17.9328 C.3         1 PAX       0.2013
     27 C2        -27.5566  -30.8852   18.6599 C.3         1 PAX       0.1432
     28 O2        -26.4446  -30.2067   19.2406 O.3         1 PAX      -0.3832
     29 C3        -27.1890  -31.9069   17.5730 C.3         1 PAX       0.1487
     30 O3        -26.0174  -31.5258   16.8034 O.3         1 PAX      -0.2674
     31 O5        -33.8367  -38.2002   18.6534 O.3         1 PAX      -0.2734
     32 C5        -34.6630  -37.4397   17.7416 C.3         1 PAX       0.1074
     33 C4        -33.9928  -36.1640   17.1433 C.3         1 PAX       0.1209
     34 O4        -33.5465  -36.3842   15.7980 O.3         1 PAX      -0.3391
     35 C1        -33.3759  -35.0916   15.1831 C.3         1 PAX       0.1760
     36 C2        -34.5906  -34.2894   15.6974 C.3         1 PAX       0.0362
     37 C3        -34.9227  -34.9237   17.0686 C.3         1 PAX       0.1284
     38 O3        -34.9347  -34.0280   18.2128 O.3         1 PAX      -0.2441
     39 PD        -33.7551  -37.7055   20.1360 P.3         1 PAX       0.2008
     40 O1D       -32.8862  -36.5653   20.2786 O.co2       1 PAX      -0.5537
     41 O2D       -33.2049  -38.7414   20.9793 O.co2       1 PAX      -0.5537
     42 O3D       -35.0510  -37.3592   20.6817 O.co2       1 PAX      -0.5537
     43 N1T       -33.2636  -35.0891   13.7319 N.am        1 PAX      -0.1736
     44 C6T       -33.1986  -36.2580   13.0276 C.2         1 PAX       0.0524
     45 C2T       -33.2142  -33.9309   13.0401 C.2         1 PAX       0.3265
     46 O2T       -33.2449  -32.8262   13.5689 O.2         1 PAX      -0.3843
     47 N3T       -33.1305  -33.9435   11.7140 N.am        1 PAX      -0.1859
     48 C4T       -33.0782  -35.0827   11.0251 C.2         1 PAX       0.1930
     49 O4T       -33.0161  -34.9886    9.8074 O.2         1 PAX      -0.4079
     50 C5T       -33.1020  -36.2929   11.6788 C.2         1 PAX       0.0225
     51 CM5       -33.0078  -37.5810   10.9964 C.3         1 PAX      -0.0437
     52 H1        -27.7738  -28.7146   22.9721 H           1 PAX       0.0996
     53 H2        -32.3188  -26.5547   21.4285 H           1 PAX       0.1820
     54 H3        -31.6461  -26.3881   22.9556 H           1 PAX       0.1820
     55 H4        -30.8906  -28.6414   17.3506 H           1 PAX       0.1349
     56 H5        -30.0359  -33.1285   15.8754 H           1 PAX       0.0648
     57 H6        -28.7727  -33.9789   16.7376 H           1 PAX       0.0648
     58 H7        -28.1067  -31.7956   15.5918 H           1 PAX       0.0654
     59 H8        -27.8476  -29.1466   17.4016 H           1 PAX       0.0996
     60 H9        -28.1285  -31.3983   19.4382 H           1 PAX       0.0680
     61 H10       -26.3215  -30.6303   20.1122 H           1 PAX       0.2101
     62 H11       -27.0989  -32.9074   18.0151 H           1 PAX       0.0704
     63 H12       -35.6219  -37.1835   18.2041 H           1 PAX       0.0639
     64 H13       -34.9121  -38.1194   16.9207 H           1 PAX       0.0639
     65 H14       -33.1022  -35.9312   17.7250 H           1 PAX       0.0653
     66 H15       -32.4544  -34.6632   15.5967 H           1 PAX       0.0959
     67 H16       -35.4338  -34.4164   15.0087 H           1 PAX       0.0348
     68 H17       -34.3794  -33.2219   15.7722 H           1 PAX       0.0348
     69 H18       -35.9573  -35.2720   16.9953 H           1 PAX       0.0686
     70 H19       -33.2228  -37.1253   13.5080 H           1 PAX       0.1011
     71 H20       -33.1060  -33.1006   11.2293 H           1 PAX       0.2259
     72 H21       -32.1139  -38.1116   11.3347 H           1 PAX       0.0296
     73 H22       -32.9494  -37.4877    9.9102 H           1 PAX       0.0296
     74 H23       -33.8838  -38.1912   11.2320 H           1 PAX       0.0296
@<TRIPOS>BOND
     1     1     2  ar
     2     1     3  ar
     3     1     4   1
     4     8     1   1
     5     4    23   1
     6     5     6  ar
     7     5     7  ar
     8     5     8   1
     9    38     5   1
    10     9    10  ar
    11     9    11  ar
    12     9    12  ar
    13    30     9   1
    14    13    14   1
    15    13    22   1
    16    26    13   1
    17    14    15  ar
    18    14    20  ar
    19    15    16  ar
    20    16    17  ar
    21    18    17  ar
    22    18    19   1
    23    20    18  ar
    24    21    20   1
    25    22    21   2
    26    23    24   1
    27    24    25   1
    28    24    29   1
    29    25    26   1
    30    27    26   1
    31    27    28   1
    32    29    27   1
    33    29    30   1
    34    32    31   1
    35    31    39   1
    36    33    32   1
    37    33    34   1
    38    37    33   1
    39    35    34   1
    40    36    35   1
    41    35    43   1
    42    37    36   1
    43    37    38   1
    44    39    40  ar
    45    39    41  ar
    46    39    42  ar
    47    43    44   1
    48    43    45  am
    49    44    50   2
    50    45    46   2
    51    45    47  am
    52    47    48  am
    53    48    49   2
    54    48    50   1
    55    50    51   1
    56    16    52   1
    57    19    53   1
    58    19    54   1
    59    22    55   1
    60    23    56   1
    61    23    57   1
    62    24    58   1
    63    26    59   1
    64    27    60   1
    65    28    61   1
    66    29    62   1
    67    32    63   1
    68    32    64   1
    69    33    65   1
    70    35    66   1
    71    36    67   1
    72    36    68   1
    73    37    69   1
    74    44    70   1
    75    47    71   1
    76    51    72   1
    77    51    73   1
    78    51    74   1
@<TRIPOS>SUBSTRUCTURE
     1  PAX     14

