@<TRIPOS>MOLECULE
1u1b_ligand_085
    74    78
SMALL
GAST_HUCK
****
This file was generated by PARSER (from files_GN.cpp)

@<TRIPOS>ATOM
      1 PA        -33.7636  -32.5251   16.8829 P.3         1 PAX       0.2972
      2 O1A       -34.3516  -32.4081   18.1967 O.co2       1 PAX      -0.6127
      3 O2A       -34.7448  -31.9454   15.9958 O.co2       1 PAX      -0.6127
      4 O5        -32.4691  -31.6628   16.8153 O.3         1 PAX      -0.2476
      5 PB        -33.2107  -34.4661   15.1611 P.3         1 PAX       0.2974
      6 O1B       -33.0040  -35.8942   15.1641 O.co2       1 PAX      -0.6127
      7 O2B       -34.3787  -34.2741   14.3361 O.co2       1 PAX      -0.6127
      8 O3A       -33.5230  -34.0407   16.6256 O.3         1 PAX      -0.1319
      9 PG        -27.5960  -32.5137   18.2913 P.3         1 PAX       0.2013
     10 O1G       -27.1547  -32.6266   16.9224 O.co2       1 PAX      -0.5537
     11 O2G       -26.4386  -32.8085   19.1002 O.co2       1 PAX      -0.5537
     12 O3G       -28.5943  -33.5152   18.5596 O.co2       1 PAX      -0.5537
     13 N9A       -30.4985  -27.2521   18.0442 N.pl3       1 PAX      -0.1919
     14 C4A       -30.1186  -26.1546   17.3630 C.ar        1 PAX       0.1613
     15 N3A       -29.1453  -25.9659   16.4348 N.ar        1 PAX      -0.2714
     16 C2A       -28.9572  -24.7344   15.8855 C.ar        1 PAX       0.0533
     17 N1A       -29.7504  -23.6928   16.2636 N.ar        1 PAX      -0.2698
     18 C6A       -30.7409  -23.8365   17.1847 C.ar        1 PAX       0.1298
     19 N6A       -31.5011  -22.7787   17.5195 N.pl3       1 PAX      -0.3152
     20 C5A       -30.9389  -25.1022   17.7596 C.ar        1 PAX       0.1045
     21 N7A       -31.8123  -25.5626   18.6683 N.2         1 PAX      -0.2958
     22 C8A       -31.5329  -26.8721   18.8285 C.2         1 PAX       0.1123
     23 C5        -31.5224  -31.8195   17.8919 C.3         1 PAX       0.1131
     24 C4        -30.3578  -30.8209   17.6920 C.3         1 PAX       0.1235
     25 O4        -30.8984  -29.5114   17.4503 O.3         1 PAX      -0.3360
     26 C1        -29.9328  -28.5708   17.9251 C.3         1 PAX       0.2013
     27 C2        -29.4503  -29.1984   19.2447 C.3         1 PAX       0.1432
     28 O2        -28.2299  -28.6174   19.7065 O.3         1 PAX      -0.3832
     29 C3        -29.3630  -30.7011   18.8907 C.3         1 PAX       0.1487
     30 O3        -27.9990  -31.0278   18.5281 O.3         1 PAX      -0.2674
     31 O5        -27.6215  -35.7353   15.1336 O.3         1 PAX      -0.2734
     32 C5        -29.0444  -35.9620   15.1273 C.3         1 PAX       0.1074
     33 C4        -29.8431  -34.6189   15.2229 C.3         1 PAX       0.1209
     34 O4        -28.9434  -33.4911   15.2394 O.3         1 PAX      -0.3391
     35 C1        -29.2202  -32.6240   14.1304 C.3         1 PAX       0.1760
     36 C2        -30.0635  -33.4443   13.1351 C.3         1 PAX       0.0362
     37 C3        -30.8616  -34.3687   14.0660 C.3         1 PAX       0.1284
     38 O3        -32.0379  -33.6595   14.5176 O.3         1 PAX      -0.2441
     39 PD        -26.7157  -36.9292   14.7234 P.3         1 PAX       0.2008
     40 O1D       -26.5679  -37.9076   15.7736 O.co2       1 PAX      -0.5537
     41 O2D       -25.4058  -36.4031   14.4337 O.co2       1 PAX      -0.5537
     42 O3D       -27.1880  -37.5840   13.5290 O.co2       1 PAX      -0.5537
     43 N1T       -27.9868  -32.0695   13.5893 N.am        1 PAX      -0.1736
     44 C6T       -27.0240  -32.9149   13.1104 C.2         1 PAX       0.0524
     45 C2T       -27.7293  -30.7457   13.5775 C.2         1 PAX       0.3265
     46 O2T       -28.5051  -29.8986   13.9969 O.2         1 PAX      -0.3843
     47 N3T       -26.5734  -30.2910   13.0994 N.am        1 PAX      -0.1859
     48 C4T       -25.6458  -31.1109   12.6155 C.2         1 PAX       0.1930
     49 O4T       -24.6177  -30.6026   12.1922 O.2         1 PAX      -0.4079
     50 C5T       -25.8448  -32.4713   12.6140 C.2         1 PAX       0.0225
     51 CM5       -24.8368  -33.3933   12.0994 C.3         1 PAX      -0.0437
     52 H1        -28.2201  -24.5929   15.1947 H           1 PAX       0.0996
     53 H2        -32.2052  -22.8796   18.1785 H           1 PAX       0.1820
     54 H3        -31.3355  -21.9106   17.1159 H           1 PAX       0.1820
     55 H4        -32.0548  -27.4846   19.4577 H           1 PAX       0.1349
     56 H5        -31.1249  -32.8374   17.9099 H           1 PAX       0.0648
     57 H6        -31.9885  -31.6095   18.8579 H           1 PAX       0.0648
     58 H7        -29.8125  -31.1163   16.7973 H           1 PAX       0.0654
     59 H8        -29.0954  -28.5458   17.2143 H           1 PAX       0.0996
     60 H9        -30.2070  -29.0589   20.0225 H           1 PAX       0.0680
     61 H10       -28.4725  -27.7187   20.0232 H           1 PAX       0.2101
     62 H11       -29.6840  -31.2811   19.7652 H           1 PAX       0.0704
     63 H12       -29.3103  -36.5903   15.9838 H           1 PAX       0.0639
     64 H13       -29.3304  -36.5004   14.2206 H           1 PAX       0.0639
     65 H14       -30.3732  -34.6157   16.1850 H           1 PAX       0.0653
     66 H15       -29.8789  -31.8393   14.5167 H           1 PAX       0.0959
     67 H16       -29.4382  -34.0490   12.4712 H           1 PAX       0.0348
     68 H17       -30.7159  -32.8068   12.5297 H           1 PAX       0.0348
     69 H18       -31.1436  -35.2751   13.5135 H           1 PAX       0.0686
     70 H19       -27.1907  -33.8938   13.1220 H           1 PAX       0.1011
     71 H20       -26.4050  -29.3352   13.0983 H           1 PAX       0.2259
     72 H21       -25.1382  -34.4398   12.1757 H           1 PAX       0.0296
     73 H22       -23.9064  -33.2787   12.6569 H           1 PAX       0.0296
     74 H23       -24.6405  -33.1823   11.0470 H           1 PAX       0.0296
@<TRIPOS>BOND
     1     1     2  ar
     2     1     3  ar
     3     1     4   1
     4     8     1   1
     5     4    23   1
     6     5     6  ar
     7     5     7  ar
     8     5     8   1
     9    38     5   1
    10     9    10  ar
    11     9    11  ar
    12     9    12  ar
    13    30     9   1
    14    13    14   1
    15    13    22   1
    16    26    13   1
    17    14    15  ar
    18    14    20  ar
    19    15    16  ar
    20    16    17  ar
    21    18    17  ar
    22    18    19   1
    23    20    18  ar
    24    21    20   1
    25    22    21   2
    26    23    24   1
    27    24    25   1
    28    24    29   1
    29    25    26   1
    30    27    26   1
    31    27    28   1
    32    29    27   1
    33    29    30   1
    34    32    31   1
    35    31    39   1
    36    33    32   1
    37    33    34   1
    38    37    33   1
    39    35    34   1
    40    36    35   1
    41    35    43   1
    42    37    36   1
    43    37    38   1
    44    39    40  ar
    45    39    41  ar
    46    39    42  ar
    47    43    44   1
    48    43    45  am
    49    44    50   2
    50    45    46   2
    51    45    47  am
    52    47    48  am
    53    48    49   2
    54    48    50   1
    55    50    51   1
    56    16    52   1
    57    19    53   1
    58    19    54   1
    59    22    55   1
    60    23    56   1
    61    23    57   1
    62    24    58   1
    63    26    59   1
    64    27    60   1
    65    28    61   1
    66    29    62   1
    67    32    63   1
    68    32    64   1
    69    33    65   1
    70    35    66   1
    71    36    67   1
    72    36    68   1
    73    37    69   1
    74    44    70   1
    75    47    71   1
    76    51    72   1
    77    51    73   1
    78    51    74   1
@<TRIPOS>SUBSTRUCTURE
     1  PAX     14

