@<TRIPOS>MOLECULE
1u1b_ligand_043
    74    78
SMALL
GAST_HUCK
****
This file was generated by PARSER (from files_GN.cpp)

@<TRIPOS>ATOM
      1 PA        -30.0035  -31.5537   18.2731 P.3         1 PAX       0.2972
      2 O1A       -30.7572  -30.4780   17.6267 O.co2       1 PAX      -0.6127
      3 O2A       -30.1267  -31.1870   19.6663 O.co2       1 PAX      -0.6127
      4 O5        -30.6535  -32.9632   18.1886 O.3         1 PAX      -0.2476
      5 PB        -27.9478  -31.2356   16.6149 P.3         1 PAX       0.2974
      6 O1B       -28.4800  -29.9978   16.0814 O.co2       1 PAX      -0.6127
      7 O2B       -26.5404  -30.9246   16.7487 O.co2       1 PAX      -0.6127
      8 O3A       -28.4748  -31.5486   18.0443 O.3         1 PAX      -0.1319
      9 PG        -33.8201  -35.9451   14.0181 P.3         1 PAX       0.2013
     10 O1G       -33.4847  -34.7876   13.2223 O.co2       1 PAX      -0.5537
     11 O2G       -33.2492  -37.0916   13.3622 O.co2       1 PAX      -0.5537
     12 O3G       -35.2533  -36.1310   14.0496 O.co2       1 PAX      -0.5537
     13 N9A       -34.7501  -35.6065   19.6672 N.pl3       1 PAX      -0.1919
     14 C4A       -34.3162  -35.2495   20.8910 C.ar        1 PAX       0.1613
     15 N3A       -33.0930  -34.8706   21.3477 N.ar        1 PAX      -0.2714
     16 C2A       -32.9153  -34.5700   22.6616 C.ar        1 PAX       0.0533
     17 N1A       -33.9663  -34.6349   23.5272 N.ar        1 PAX      -0.2698
     18 C6A       -35.2062  -35.0216   23.1264 C.ar        1 PAX       0.1298
     19 N6A       -36.2162  -35.0787   24.0069 N.pl3       1 PAX      -0.3152
     20 C5A       -35.3911  -35.3561   21.7729 C.ar        1 PAX       0.1045
     21 N7A       -36.4548  -35.8066   21.0981 N.2         1 PAX      -0.2958
     22 C8A       -36.0439  -35.9702   19.8264 C.2         1 PAX       0.1123
     23 C5        -31.8410  -33.0602   17.3768 C.3         1 PAX       0.1131
     24 C4        -32.2938  -34.5365   17.2576 C.3         1 PAX       0.1235
     25 O4        -32.7080  -35.0315   18.5469 O.3         1 PAX      -0.3360
     26 C1        -33.9990  -35.6571   18.4353 C.3         1 PAX       0.2013
     27 C2        -34.6573  -34.9368   17.2434 C.3         1 PAX       0.1432
     28 O2        -35.7152  -35.6832   16.6501 O.3         1 PAX      -0.3832
     29 C3        -33.4809  -34.7226   16.2750 C.3         1 PAX       0.1487
     30 O3        -33.1966  -35.8801   15.4386 O.3         1 PAX      -0.2674
     31 O5        -25.7961  -33.8703   18.6200 O.3         1 PAX      -0.2734
     32 C5        -26.6522  -34.6868   17.7889 C.3         1 PAX       0.1074
     33 C4        -26.6782  -34.2889   16.2779 C.3         1 PAX       0.1209
     34 O4        -26.3985  -35.4399   15.4571 O.3         1 PAX      -0.3391
     35 C1        -26.8696  -35.1068   14.1474 C.3         1 PAX       0.1760
     36 C2        -28.2433  -34.4439   14.4195 C.3         1 PAX       0.0362
     37 C3        -28.0199  -33.6900   15.7532 C.3         1 PAX       0.1284
     38 O3        -28.0420  -32.2770   15.4617 O.3         1 PAX      -0.2441
     39 PD        -24.2586  -34.0595   18.5207 P.3         1 PAX       0.2008
     40 O1D       -23.6662  -32.8158   18.0764 O.co2       1 PAX      -0.5537
     41 O2D       -23.7788  -35.1071   17.6451 O.co2       1 PAX      -0.5537
     42 O3D       -23.7351  -34.2996   19.8421 O.co2       1 PAX      -0.5537
     43 N1T       -26.8550  -36.2803   13.2758 N.am        1 PAX      -0.1736
     44 C6T       -25.9077  -36.3739   12.2904 C.2         1 PAX       0.0524
     45 C2T       -27.6857  -37.3305   13.4537 C.2         1 PAX       0.3265
     46 O2T       -28.5375  -37.3757   14.3367 O.2         1 PAX      -0.3843
     47 N3T       -27.5929  -38.3963   12.6634 N.am        1 PAX      -0.1859
     48 C4T       -26.6669  -38.4938   11.7173 C.2         1 PAX       0.1930
     49 O4T       -26.6688  -39.5050   11.0320 O.2         1 PAX      -0.4079
     50 C5T       -25.7536  -37.4815   11.5286 C.2         1 PAX       0.0225
     51 CM5       -24.6428  -37.6342   10.5983 C.3         1 PAX      -0.0437
     52 H1        -31.9949  -34.2979   23.0016 H           1 PAX       0.0996
     53 H2        -37.1022  -35.3479   23.7147 H           1 PAX       0.1820
     54 H3        -36.0674  -34.8381   24.9350 H           1 PAX       0.1820
     55 H4        -36.6578  -36.3300   19.0934 H           1 PAX       0.1349
     56 H5        -31.6475  -32.6799   16.3706 H           1 PAX       0.0648
     57 H6        -32.6545  -32.4751   17.8304 H           1 PAX       0.0648
     58 H7        -31.4336  -35.1211   16.9317 H           1 PAX       0.0654
     59 H8        -33.8412  -36.7101   18.1800 H           1 PAX       0.0996
     60 H9        -35.0501  -33.9647   17.5659 H           1 PAX       0.0680
     61 H10       -36.5367  -35.3349   17.0647 H           1 PAX       0.2101
     62 H11       -33.6491  -33.8108   15.6822 H           1 PAX       0.0704
     63 H12       -27.6545  -34.5860   18.2164 H           1 PAX       0.0639
     64 H13       -26.3902  -35.7458   17.8967 H           1 PAX       0.0639
     65 H14       -25.8787  -33.5655   16.0851 H           1 PAX       0.0653
     66 H15       -26.2166  -34.3190   13.7425 H           1 PAX       0.0959
     67 H16       -29.0341  -35.2003   14.5341 H           1 PAX       0.0348
     68 H17       -28.5264  -33.7809   13.5900 H           1 PAX       0.0348
     69 H18       -28.8606  -33.9374   16.4023 H           1 PAX       0.0686
     70 H19       -25.2806  -35.6148   12.1435 H           1 PAX       0.1011
     71 H20       -28.2210  -39.1256   12.7927 H           1 PAX       0.2259
     72 H21       -23.9801  -36.7617   10.5877 H           1 PAX       0.0296
     73 H22       -25.0188  -37.7839    9.5834 H           1 PAX       0.0296
     74 H23       -24.0426  -38.5025   10.8848 H           1 PAX       0.0296
@<TRIPOS>BOND
     1     1     2  ar
     2     1     3  ar
     3     1     4   1
     4     8     1   1
     5     4    23   1
     6     5     6  ar
     7     5     7  ar
     8     5     8   1
     9    38     5   1
    10     9    10  ar
    11     9    11  ar
    12     9    12  ar
    13    30     9   1
    14    13    14   1
    15    13    22   1
    16    26    13   1
    17    14    15  ar
    18    14    20  ar
    19    15    16  ar
    20    16    17  ar
    21    18    17  ar
    22    18    19   1
    23    20    18  ar
    24    21    20   1
    25    22    21   2
    26    23    24   1
    27    24    25   1
    28    24    29   1
    29    25    26   1
    30    27    26   1
    31    27    28   1
    32    29    27   1
    33    29    30   1
    34    32    31   1
    35    31    39   1
    36    33    32   1
    37    33    34   1
    38    37    33   1
    39    35    34   1
    40    36    35   1
    41    35    43   1
    42    37    36   1
    43    37    38   1
    44    39    40  ar
    45    39    41  ar
    46    39    42  ar
    47    43    44   1
    48    43    45  am
    49    44    50   2
    50    45    46   2
    51    45    47  am
    52    47    48  am
    53    48    49   2
    54    48    50   1
    55    50    51   1
    56    16    52   1
    57    19    53   1
    58    19    54   1
    59    22    55   1
    60    23    56   1
    61    23    57   1
    62    24    58   1
    63    26    59   1
    64    27    60   1
    65    28    61   1
    66    29    62   1
    67    32    63   1
    68    32    64   1
    69    33    65   1
    70    35    66   1
    71    36    67   1
    72    36    68   1
    73    37    69   1
    74    44    70   1
    75    47    71   1
    76    51    72   1
    77    51    73   1
    78    51    74   1
@<TRIPOS>SUBSTRUCTURE
     1  PAX     14

