@<TRIPOS>MOLECULE
1u1b_ligand_020
    74    78
SMALL
GAST_HUCK
****
This file was generated by PARSER (from files_GN.cpp)

@<TRIPOS>ATOM
      1 PA        -34.7244  -35.6886   15.1511 P.3         1 PAX       0.2972
      2 O1A       -34.7858  -35.6298   13.7105 O.co2       1 PAX      -0.6127
      3 O2A       -35.6993  -36.6540   15.6050 O.co2       1 PAX      -0.6127
      4 O5        -33.3310  -36.2969   15.5156 O.3         1 PAX      -0.2476
      5 PB        -36.3147  -33.7952   16.2004 P.3         1 PAX       0.2974
      6 O1B       -37.2426  -33.7233   15.0944 O.co2       1 PAX      -0.6127
      7 O2B       -36.9016  -34.6066   17.2395 O.co2       1 PAX      -0.6127
      8 O3A       -34.8938  -34.2647   15.7619 O.3         1 PAX      -0.1319
      9 PG        -28.7410  -36.1679   13.7990 P.3         1 PAX       0.2013
     10 O1G       -27.4303  -35.6191   14.0468 O.co2       1 PAX      -0.5537
     11 O2G       -28.7692  -37.5434   14.2331 O.co2       1 PAX      -0.5537
     12 O3G       -28.9042  -36.1922   12.3647 O.co2       1 PAX      -0.5537
     13 N9A       -29.7262  -32.2528   17.9452 N.pl3       1 PAX      -0.1919
     14 C4A       -28.5637  -31.5878   18.0697 C.ar        1 PAX       0.1613
     15 N3A       -27.4431  -31.5755   17.3076 N.ar        1 PAX      -0.2714
     16 C2A       -26.3931  -30.7886   17.6548 C.ar        1 PAX       0.0533
     17 N1A       -26.4705  -30.0063   18.7684 N.ar        1 PAX      -0.2698
     18 C6A       -27.5687  -29.9805   19.5717 C.ar        1 PAX       0.1298
     19 N6A       -27.5862  -29.1872   20.6522 N.pl3       1 PAX      -0.3152
     20 C5A       -28.6530  -30.7964   19.2164 C.ar        1 PAX       0.1045
     21 N7A       -29.8525  -30.9969   19.7743 N.2         1 PAX      -0.2958
     22 C8A       -30.4980  -31.8848   18.9929 C.2         1 PAX       0.1123
     23 C5        -32.6216  -35.7340   16.6424 C.3         1 PAX       0.1131
     24 C4        -31.5574  -34.7316   16.1076 C.3         1 PAX       0.1235
     25 O4        -31.3970  -33.6651   17.0443 O.3         1 PAX      -0.3360
     26 C1        -30.0946  -33.1090   16.8479 C.3         1 PAX       0.2013
     27 C2        -29.2191  -34.3587   16.6503 C.3         1 PAX       0.1432
     28 O2        -27.9808  -34.0411   16.0224 O.3         1 PAX      -0.3832
     29 C3        -30.1319  -35.3110   15.8375 C.3         1 PAX       0.1487
     30 O3        -29.9001  -35.3100   14.4010 O.3         1 PAX      -0.2674
     31 O5        -34.5247  -32.2860   20.6823 O.3         1 PAX      -0.2734
     32 C5        -35.8746  -31.8236   20.4388 C.3         1 PAX       0.1074
     33 C4        -35.9283  -31.2448   19.0058 C.3         1 PAX       0.1209
     34 O4        -35.1673  -30.0373   19.0008 O.3         1 PAX      -0.3391
     35 C1        -34.4554  -29.9260   17.7561 C.3         1 PAX       0.1760
     36 C2        -34.0704  -31.4076   17.4947 C.3         1 PAX       0.0362
     37 C3        -35.3221  -32.1864   17.9298 C.3         1 PAX       0.1284
     38 O3        -36.2311  -32.3579   16.8117 O.3         1 PAX      -0.2441
     39 PD        -34.3382  -33.6278   21.4448 P.3         1 PAX       0.2008
     40 O1D       -35.3894  -34.5749   21.1582 O.co2       1 PAX      -0.5537
     41 O2D       -34.2205  -33.4302   22.8707 O.co2       1 PAX      -0.5537
     42 O3D       -33.1265  -34.2336   20.9446 O.co2       1 PAX      -0.5537
     43 N1T       -33.3925  -28.9313   17.8472 N.am        1 PAX      -0.1736
     44 C6T       -32.1521  -29.1595   17.3114 C.2         1 PAX       0.0524
     45 C2T       -33.6257  -27.7212   18.3999 C.2         1 PAX       0.3265
     46 O2T       -34.7096  -27.3696   18.8408 O.2         1 PAX      -0.3843
     47 N3T       -32.6476  -26.8257   18.4954 N.am        1 PAX      -0.1859
     48 C4T       -31.4331  -27.0675   18.0171 C.2         1 PAX       0.1930
     49 O4T       -30.5964  -26.1836   18.1552 O.2         1 PAX      -0.4079
     50 C5T       -31.1501  -28.2458   17.3689 C.2         1 PAX       0.0225
     51 CM5       -29.8693  -28.4679   16.7114 C.3         1 PAX      -0.0437
     52 H1        -25.5537  -30.7798   17.0806 H           1 PAX       0.0996
     53 H2        -28.3656  -29.1676   21.2354 H           1 PAX       0.1820
     54 H3        -26.8085  -28.6403   20.8618 H           1 PAX       0.1820
     55 H4        -31.4619  -32.2028   19.1677 H           1 PAX       0.1349
     56 H5        -32.1367  -36.5572   17.1707 H           1 PAX       0.0648
     57 H6        -33.2600  -35.2415   17.3847 H           1 PAX       0.0648
     58 H7        -31.9474  -34.2597   15.1994 H           1 PAX       0.0654
     59 H8        -30.0991  -32.5042   15.9304 H           1 PAX       0.0996
     60 H9        -29.0097  -34.8027   17.6264 H           1 PAX       0.0680
     61 H10       -27.4172  -34.8347   16.1586 H           1 PAX       0.2101
     62 H11       -30.0473  -36.3242   16.2490 H           1 PAX       0.0704
     63 H12       -36.1246  -31.0477   21.1708 H           1 PAX       0.0639
     64 H13       -36.6375  -32.6126   20.4985 H           1 PAX       0.0639
     65 H14       -36.9643  -30.9943   18.7609 H           1 PAX       0.0653
     66 H15       -35.1510  -29.5940   16.9682 H           1 PAX       0.0959
     67 H16       -33.2109  -31.6893   18.1190 H           1 PAX       0.0348
     68 H17       -33.8243  -31.5826   16.4414 H           1 PAX       0.0348
     69 H18       -35.0306  -33.1418   18.3838 H           1 PAX       0.0686
     70 H19       -31.9800  -30.0037   16.8173 H           1 PAX       0.1011
     71 H20       -32.8317  -25.9705   18.9208 H           1 PAX       0.2259
     72 H21       -29.8105  -29.4452   16.2213 H           1 PAX       0.0296
     73 H22       -29.0647  -28.4112   17.4511 H           1 PAX       0.0296
     74 H23       -29.7192  -27.6971   15.9468 H           1 PAX       0.0296
@<TRIPOS>BOND
     1     1     2  ar
     2     1     3  ar
     3     1     4   1
     4     8     1   1
     5     4    23   1
     6     5     6  ar
     7     5     7  ar
     8     5     8   1
     9    38     5   1
    10     9    10  ar
    11     9    11  ar
    12     9    12  ar
    13    30     9   1
    14    13    14   1
    15    13    22   1
    16    26    13   1
    17    14    15  ar
    18    14    20  ar
    19    15    16  ar
    20    16    17  ar
    21    18    17  ar
    22    18    19   1
    23    20    18  ar
    24    21    20   1
    25    22    21   2
    26    23    24   1
    27    24    25   1
    28    24    29   1
    29    25    26   1
    30    27    26   1
    31    27    28   1
    32    29    27   1
    33    29    30   1
    34    32    31   1
    35    31    39   1
    36    33    32   1
    37    33    34   1
    38    37    33   1
    39    35    34   1
    40    36    35   1
    41    35    43   1
    42    37    36   1
    43    37    38   1
    44    39    40  ar
    45    39    41  ar
    46    39    42  ar
    47    43    44   1
    48    43    45  am
    49    44    50   2
    50    45    46   2
    51    45    47  am
    52    47    48  am
    53    48    49   2
    54    48    50   1
    55    50    51   1
    56    16    52   1
    57    19    53   1
    58    19    54   1
    59    22    55   1
    60    23    56   1
    61    23    57   1
    62    24    58   1
    63    26    59   1
    64    27    60   1
    65    28    61   1
    66    29    62   1
    67    32    63   1
    68    32    64   1
    69    33    65   1
    70    35    66   1
    71    36    67   1
    72    36    68   1
    73    37    69   1
    74    44    70   1
    75    47    71   1
    76    51    72   1
    77    51    73   1
    78    51    74   1
@<TRIPOS>SUBSTRUCTURE
     1  PAX     14

