@<TRIPOS>MOLECULE
1u1b_ligand_088
    74    78
SMALL
GAST_HUCK
****
This file was generated by PARSER (from files_GN.cpp)

@<TRIPOS>ATOM
      1 PA        -33.2165  -30.0437   17.2151 P.3         1 PAX       0.2972
      2 O1A       -34.1640  -29.1727   16.5691 O.co2       1 PAX      -0.6127
      3 O2A       -33.9682  -30.5941   18.3167 O.co2       1 PAX      -0.6127
      4 O5        -32.8203  -31.3280   16.4257 O.3         1 PAX      -0.2476
      5 PB        -31.1121  -28.4723   17.0213 P.3         1 PAX       0.2974
      6 O1B       -30.1163  -27.8936   17.8892 O.co2       1 PAX      -0.6127
      7 O2B       -30.2899  -29.2614   16.1291 O.co2       1 PAX      -0.6127
      8 O3A       -32.0335  -29.3278   17.9313 O.3         1 PAX      -0.1319
      9 PG        -34.8741  -35.4616   13.9480 P.3         1 PAX       0.2013
     10 O1G       -34.4648  -36.7388   14.4780 O.co2       1 PAX      -0.5537
     11 O2G       -35.9744  -34.9342   14.7196 O.co2       1 PAX      -0.5537
     12 O3G       -35.3897  -35.7313   12.6283 O.co2       1 PAX      -0.5537
     13 N9A       -29.7023  -34.5920   15.8750 N.pl3       1 PAX      -0.1919
     14 C4A       -29.2366  -33.9608   16.9711 C.ar        1 PAX       0.1613
     15 N3A       -29.6556  -32.8526   17.6348 N.ar        1 PAX      -0.2714
     16 C2A       -28.9990  -32.4363   18.7523 C.ar        1 PAX       0.0533
     17 N1A       -27.9257  -33.1376   19.2138 N.ar        1 PAX      -0.2698
     18 C6A       -27.4616  -34.2510   18.5828 C.ar        1 PAX       0.1298
     19 N6A       -26.4130  -34.9343   19.0741 N.pl3       1 PAX      -0.3152
     20 C5A       -28.1286  -34.6750   17.4214 C.ar        1 PAX       0.1045
     21 N7A       -27.9229  -35.7182   16.6083 N.2         1 PAX      -0.2958
     22 C8A       -28.8858  -35.6512   15.6700 C.2         1 PAX       0.1123
     23 C5        -32.6285  -31.1892   15.0007 C.3         1 PAX       0.1131
     24 C4        -32.2746  -32.5760   14.4140 C.3         1 PAX       0.1235
     25 O4        -30.9088  -32.8803   14.7426 O.3         1 PAX      -0.3360
     26 C1        -30.8550  -34.2685   15.0795 C.3         1 PAX       0.2013
     27 C2        -32.1840  -34.5207   15.8056 C.3         1 PAX       0.1432
     28 O2        -32.4489  -35.9103   15.9558 O.3         1 PAX      -0.3832
     29 C3        -33.1810  -33.7386   14.9294 C.3         1 PAX       0.1487
     30 O3        -33.6851  -34.4620   13.7804 O.3         1 PAX      -0.2674
     31 O5        -33.0818  -24.7345   19.0482 O.3         1 PAX      -0.2734
     32 C5        -33.6218  -24.3681   17.7587 C.3         1 PAX       0.1074
     33 C4        -33.3289  -25.4739   16.7115 C.3         1 PAX       0.1209
     34 O4        -33.6020  -24.9460   15.4003 O.3         1 PAX      -0.3391
     35 C1        -32.3610  -24.7148   14.7042 C.3         1 PAX       0.1760
     36 C2        -31.2242  -25.0445   15.6977 C.3         1 PAX       0.0362
     37 C3        -31.8777  -26.0039   16.6939 C.3         1 PAX       0.1284
     38 O3        -31.7840  -27.3488   16.1616 O.3         1 PAX      -0.2441
     39 PD        -31.9561  -23.8242   19.6287 P.3         1 PAX       0.2008
     40 O1D       -30.8126  -23.8285   18.7495 O.co2       1 PAX      -0.5537
     41 O2D       -31.5375  -24.3784   20.8931 O.co2       1 PAX      -0.5537
     42 O3D       -32.4001  -22.4658   19.8300 O.co2       1 PAX      -0.5537
     43 N1T       -32.1828  -23.3904   14.1241 N.am        1 PAX      -0.1736
     44 C6T       -32.8910  -22.3121   14.5801 C.2         1 PAX       0.0524
     45 C2T       -31.2422  -23.1766   13.1799 C.2         1 PAX       0.3265
     46 O2T       -30.5571  -24.0713   12.6985 O.2         1 PAX      -0.3843
     47 N3T       -31.0021  -21.9470   12.7366 N.am        1 PAX      -0.1859
     48 C4T       -31.6786  -20.8923   13.1875 C.2         1 PAX       0.1930
     49 O4T       -31.3659  -19.7999   12.7288 O.2         1 PAX      -0.4079
     50 C5T       -32.6647  -21.0517   14.1343 C.2         1 PAX       0.0225
     51 CM5       -33.4123  -19.9067   14.6459 C.3         1 PAX      -0.0437
     52 H1        -29.3169  -31.6070   19.2532 H           1 PAX       0.0996
     53 H2        -26.0892  -35.7320   18.6151 H           1 PAX       0.1820
     54 H3        -26.0076  -34.6737   19.9151 H           1 PAX       0.1820
     55 H4        -28.9871  -36.3368   14.9135 H           1 PAX       0.1349
     56 H5        -31.8214  -30.4872   14.7827 H           1 PAX       0.0648
     57 H6        -33.5449  -30.8328   14.5133 H           1 PAX       0.0648
     58 H7        -32.3397  -32.4937   13.3222 H           1 PAX       0.0654
     59 H8        -30.8383  -34.8520   14.1519 H           1 PAX       0.0996
     60 H9        -32.1543  -34.0767   16.8061 H           1 PAX       0.0680
     61 H10       -33.2248  -35.9579   16.5529 H           1 PAX       0.2101
     62 H11       -33.9991  -33.3510   15.5427 H           1 PAX       0.0704
     63 H12       -33.2779  -23.3983   17.3670 H           1 PAX       0.0639
     64 H13       -34.7069  -24.2882   17.8842 H           1 PAX       0.0639
     65 H14       -34.0190  -26.2929   16.9108 H           1 PAX       0.0653
     66 H15       -32.3562  -25.4572   13.8957 H           1 PAX       0.0959
     67 H16       -30.8953  -24.1404   16.2208 H           1 PAX       0.0348
     68 H17       -30.3605  -25.4897   15.1960 H           1 PAX       0.0348
     69 H18       -31.3800  -25.8893   17.6598 H           1 PAX       0.0686
     70 H19       -33.5839  -22.4456   15.2774 H           1 PAX       0.1011
     71 H20       -30.2963  -21.8084   12.0840 H           1 PAX       0.2259
     72 H21       -34.1466  -20.1865   15.4062 H           1 PAX       0.0296
     73 H22       -33.9473  -19.4191   13.8276 H           1 PAX       0.0296
     74 H23       -32.7230  -19.1894   15.0973 H           1 PAX       0.0296
@<TRIPOS>BOND
     1     1     2  ar
     2     1     3  ar
     3     1     4   1
     4     8     1   1
     5     4    23   1
     6     5     6  ar
     7     5     7  ar
     8     5     8   1
     9    38     5   1
    10     9    10  ar
    11     9    11  ar
    12     9    12  ar
    13    30     9   1
    14    13    14   1
    15    13    22   1
    16    26    13   1
    17    14    15  ar
    18    14    20  ar
    19    15    16  ar
    20    16    17  ar
    21    18    17  ar
    22    18    19   1
    23    20    18  ar
    24    21    20   1
    25    22    21   2
    26    23    24   1
    27    24    25   1
    28    24    29   1
    29    25    26   1
    30    27    26   1
    31    27    28   1
    32    29    27   1
    33    29    30   1
    34    32    31   1
    35    31    39   1
    36    33    32   1
    37    33    34   1
    38    37    33   1
    39    35    34   1
    40    36    35   1
    41    35    43   1
    42    37    36   1
    43    37    38   1
    44    39    40  ar
    45    39    41  ar
    46    39    42  ar
    47    43    44   1
    48    43    45  am
    49    44    50   2
    50    45    46   2
    51    45    47  am
    52    47    48  am
    53    48    49   2
    54    48    50   1
    55    50    51   1
    56    16    52   1
    57    19    53   1
    58    19    54   1
    59    22    55   1
    60    23    56   1
    61    23    57   1
    62    24    58   1
    63    26    59   1
    64    27    60   1
    65    28    61   1
    66    29    62   1
    67    32    63   1
    68    32    64   1
    69    33    65   1
    70    35    66   1
    71    36    67   1
    72    36    68   1
    73    37    69   1
    74    44    70   1
    75    47    71   1
    76    51    72   1
    77    51    73   1
    78    51    74   1
@<TRIPOS>SUBSTRUCTURE
     1  PAX     14

