@<TRIPOS>MOLECULE
1u1b_ligand_077
    74    78
SMALL
GAST_HUCK
****
This file was generated by PARSER (from files_GN.cpp)

@<TRIPOS>ATOM
      1 PA        -24.7366  -38.1788   13.1033 P.3         1 PAX       0.2972
      2 O1A       -24.7952  -38.4234   11.6793 O.co2       1 PAX      -0.6127
      3 O2A       -23.8854  -39.2115   13.6480 O.co2       1 PAX      -0.6127
      4 O5        -24.1353  -36.7722   13.4351 O.3         1 PAX      -0.2476
      5 PB        -27.2862  -37.4345   13.4920 P.3         1 PAX       0.2974
      6 O1B       -27.4804  -37.1458   12.0929 O.co2       1 PAX      -0.6127
      7 O2B       -28.4936  -38.1103   13.8951 O.co2       1 PAX      -0.6127
      8 O3A       -26.1292  -38.4506   13.7557 O.3         1 PAX      -0.1319
      9 PG        -22.3426  -34.6789   17.5246 P.3         1 PAX       0.2013
     10 O1G       -21.5966  -33.6093   18.1403 O.co2       1 PAX      -0.5537
     11 O2G       -23.7414  -34.3768   17.7001 O.co2       1 PAX      -0.5537
     12 O3G       -22.0319  -35.8794   18.2603 O.co2       1 PAX      -0.5537
     13 N9A       -22.8763  -31.8183   12.6814 N.pl3       1 PAX      -0.1919
     14 C4A       -24.1216  -31.6516   12.2056 C.ar        1 PAX       0.1613
     15 N3A       -25.2293  -32.4334   12.2769 N.ar        1 PAX      -0.2714
     16 C2A       -26.3830  -32.0255   11.6830 C.ar        1 PAX       0.0533
     17 N1A       -26.4300  -30.8395   11.0126 N.ar        1 PAX      -0.2698
     18 C6A       -25.3431  -30.0246   10.9123 C.ar        1 PAX       0.1298
     19 N6A       -25.4187  -28.8669   10.2358 N.pl3       1 PAX      -0.3152
     20 C5A       -24.1479  -30.4365   11.5259 C.ar        1 PAX       0.1045
     21 N7A       -22.9357  -29.8755   11.6038 N.2         1 PAX      -0.2958
     22 C8A       -22.1691  -30.7290   12.3077 C.2         1 PAX       0.1123
     23 C5        -22.7605  -36.5425   13.0361 C.3         1 PAX       0.1131
     24 C4        -22.2052  -35.2122   13.6325 C.3         1 PAX       0.1235
     25 O4        -22.3755  -34.1447   12.6826 O.3         1 PAX      -0.3360
     26 C1        -22.3831  -32.9309   13.4436 C.3         1 PAX       0.2013
     27 C2        -23.2693  -33.2858   14.6485 C.3         1 PAX       0.1432
     28 O2        -23.1147  -32.3365   15.7065 O.3         1 PAX      -0.3832
     29 C3        -22.8346  -34.7355   14.9853 C.3         1 PAX       0.1487
     30 O3        -21.8476  -34.8090   16.0475 O.3         1 PAX      -0.2674
     31 O5        -31.5982  -35.6891   15.9047 O.3         1 PAX      -0.2734
     32 C5        -30.2479  -35.7365   16.4046 C.3         1 PAX       0.1074
     33 C4        -29.1845  -35.2535   15.3740 C.3         1 PAX       0.1209
     34 O4        -29.0206  -33.8294   15.5069 O.3         1 PAX      -0.3391
     35 C1        -27.6489  -33.5313   15.8160 C.3         1 PAX       0.1760
     36 C2        -27.0436  -34.8444   16.3501 C.3         1 PAX       0.0362
     37 C3        -27.7828  -35.9126   15.5387 C.3         1 PAX       0.1284
     38 O3        -27.0949  -36.0878   14.2714 O.3         1 PAX      -0.2441
     39 PD        -32.5071  -34.4770   16.2639 P.3         1 PAX       0.2008
     40 O1D       -32.5471  -34.2167   17.6787 O.co2       1 PAX      -0.5537
     41 O2D       -33.8444  -34.8238   15.8584 O.co2       1 PAX      -0.5537
     42 O3D       -32.1589  -33.2821   15.5385 O.co2       1 PAX      -0.5537
     43 N1T       -27.4732  -32.4278   16.7557 N.am        1 PAX      -0.1736
     44 C6T       -28.3425  -32.2718   17.8039 C.2         1 PAX       0.0524
     45 C2T       -26.4049  -31.6027   16.6790 C.2         1 PAX       0.3265
     46 O2T       -25.5802  -31.6451   15.7730 O.2         1 PAX      -0.3843
     47 N3T       -26.1946  -30.6999   17.6352 N.am        1 PAX      -0.1859
     48 C4T       -27.0402  -30.5412   18.6530 C.2         1 PAX       0.1930
     49 O4T       -26.7632  -29.6836   19.4818 O.2         1 PAX      -0.4079
     50 C5T       -28.1662  -31.3235   18.7556 C.2         1 PAX       0.0225
     51 CM5       -29.1299  -31.1193   19.8269 C.3         1 PAX      -0.0437
     52 H1        -27.2134  -32.6150   11.7370 H           1 PAX       0.0996
     53 H2        -24.6375  -28.2944   10.1600 H           1 PAX       0.1820
     54 H3        -26.2517  -28.6029    9.8125 H           1 PAX       0.1820
     55 H4        -21.1864  -30.5570   12.5256 H           1 PAX       0.1349
     56 H5        -22.6914  -36.4975   11.9403 H           1 PAX       0.0648
     57 H6        -22.1058  -37.3570   13.3791 H           1 PAX       0.0648
     58 H7        -21.1230  -35.3430   13.7571 H           1 PAX       0.0654
     59 H8        -21.3615  -32.7201   13.7893 H           1 PAX       0.0996
     60 H9        -24.3215  -33.2969   14.3376 H           1 PAX       0.0680
     61 H10       -23.5216  -31.5118   15.3640 H           1 PAX       0.2101
     62 H11       -23.7234  -35.3295   15.2287 H           1 PAX       0.0704
     63 H12       -30.0731  -36.7900   16.6208 H           1 PAX       0.0639
     64 H13       -30.1377  -35.2091   17.3542 H           1 PAX       0.0639
     65 H14       -29.5673  -35.4590   14.3719 H           1 PAX       0.0653
     66 H15       -27.1814  -33.3057   14.8492 H           1 PAX       0.0959
     67 H16       -27.2620  -34.9641   17.4165 H           1 PAX       0.0348
     68 H17       -25.9606  -34.8841   16.2045 H           1 PAX       0.0348
     69 H18       -27.8012  -36.8404   16.1226 H           1 PAX       0.0686
     70 H19       -29.1347  -32.8719   17.8645 H           1 PAX       0.1011
     71 H20       -25.3956  -30.1476   17.5920 H           1 PAX       0.2259
     72 H21       -29.9815  -31.7988   19.7606 H           1 PAX       0.0296
     73 H22       -29.5089  -30.0977   19.7772 H           1 PAX       0.0296
     74 H23       -28.6481  -31.2706   20.7939 H           1 PAX       0.0296
@<TRIPOS>BOND
     1     1     2  ar
     2     1     3  ar
     3     1     4   1
     4     8     1   1
     5     4    23   1
     6     5     6  ar
     7     5     7  ar
     8     5     8   1
     9    38     5   1
    10     9    10  ar
    11     9    11  ar
    12     9    12  ar
    13    30     9   1
    14    13    14   1
    15    13    22   1
    16    26    13   1
    17    14    15  ar
    18    14    20  ar
    19    15    16  ar
    20    16    17  ar
    21    18    17  ar
    22    18    19   1
    23    20    18  ar
    24    21    20   1
    25    22    21   2
    26    23    24   1
    27    24    25   1
    28    24    29   1
    29    25    26   1
    30    27    26   1
    31    27    28   1
    32    29    27   1
    33    29    30   1
    34    32    31   1
    35    31    39   1
    36    33    32   1
    37    33    34   1
    38    37    33   1
    39    35    34   1
    40    36    35   1
    41    35    43   1
    42    37    36   1
    43    37    38   1
    44    39    40  ar
    45    39    41  ar
    46    39    42  ar
    47    43    44   1
    48    43    45  am
    49    44    50   2
    50    45    46   2
    51    45    47  am
    52    47    48  am
    53    48    49   2
    54    48    50   1
    55    50    51   1
    56    16    52   1
    57    19    53   1
    58    19    54   1
    59    22    55   1
    60    23    56   1
    61    23    57   1
    62    24    58   1
    63    26    59   1
    64    27    60   1
    65    28    61   1
    66    29    62   1
    67    32    63   1
    68    32    64   1
    69    33    65   1
    70    35    66   1
    71    36    67   1
    72    36    68   1
    73    37    69   1
    74    44    70   1
    75    47    71   1
    76    51    72   1
    77    51    73   1
    78    51    74   1
@<TRIPOS>SUBSTRUCTURE
     1  PAX     14

