@<TRIPOS>MOLECULE
1u1b_ligand_047
    74    78
SMALL
GAST_HUCK
****
This file was generated by PARSER (from files_GN.cpp)

@<TRIPOS>ATOM
      1 PA        -26.3239  -33.2130   11.3511 P.3         1 PAX       0.2972
      2 O1A       -27.6425  -33.5016   10.8338 O.co2       1 PAX      -0.6127
      3 O2A       -26.0813  -31.8130   11.0926 O.co2       1 PAX      -0.6127
      4 O5        -26.2643  -33.5929   12.8678 O.3         1 PAX      -0.2476
      5 PB        -23.8211  -33.8053   10.6524 P.3         1 PAX       0.2974
      6 O1B       -23.1064  -34.9806   10.2323 O.co2       1 PAX      -0.6127
      7 O2B       -23.5884  -32.7917    9.6407 O.co2       1 PAX      -0.6127
      8 O3A       -25.3419  -34.1466   10.5743 O.3         1 PAX      -0.1319
      9 PG        -27.2172  -36.8549   15.0789 P.3         1 PAX       0.2013
     10 O1G       -28.4721  -37.4486   14.6929 O.co2       1 PAX      -0.5537
     11 O2G       -26.4395  -36.5253   13.9102 O.co2       1 PAX      -0.5537
     12 O3G       -26.5209  -37.8860   15.8074 O.co2       1 PAX      -0.5537
     13 N9A       -28.5747  -31.7992   17.9944 N.pl3       1 PAX      -0.1919
     14 C4A       -28.9507  -30.5886   17.5428 C.ar        1 PAX       0.1613
     15 N3A       -28.8413  -30.0064   16.3198 N.ar        1 PAX      -0.2714
     16 C2A       -29.3205  -28.7483   16.1263 C.ar        1 PAX       0.0533
     17 N1A       -29.9006  -28.0668   17.1543 N.ar        1 PAX      -0.2698
     18 C6A       -30.0321  -28.6158   18.3937 C.ar        1 PAX       0.1298
     19 N6A       -30.6061  -27.9202   19.3867 N.pl3       1 PAX      -0.3152
     20 C5A       -29.5443  -29.9155   18.6080 C.ar        1 PAX       0.1045
     21 N7A       -29.5373  -30.7146   19.6851 N.2         1 PAX      -0.2958
     22 C8A       -28.9414  -31.8571   19.2966 C.2         1 PAX       0.1123
     23 C5        -26.9633  -32.7394   13.7993 C.3         1 PAX       0.1131
     24 C4        -26.9668  -33.3785   15.2124 C.3         1 PAX       0.1235
     25 O4        -27.1346  -32.3257   16.1767 O.3         1 PAX      -0.3360
     26 C1        -27.9347  -32.8432   17.2424 C.3         1 PAX       0.2013
     27 C2        -28.9427  -33.7653   16.5395 C.3         1 PAX       0.1432
     28 O2        -29.5673  -34.6487   17.4667 O.3         1 PAX      -0.3832
     29 C3        -28.0664  -34.4521   15.4704 C.3         1 PAX       0.1487
     30 O3        -27.4908  -35.6585   16.0366 O.3         1 PAX      -0.2674
     31 O5        -19.6499  -34.9731   13.7062 O.3         1 PAX      -0.2734
     32 C5        -20.5956  -35.7068   12.9056 C.3         1 PAX       0.1074
     33 C4        -22.0126  -35.0939   13.0907 C.3         1 PAX       0.1209
     34 O4        -22.3677  -35.1494   14.4853 O.3         1 PAX      -0.3391
     35 C1        -22.8455  -33.8509   14.8772 C.3         1 PAX       0.1760
     36 C2        -22.0618  -32.8729   13.9798 C.3         1 PAX       0.0362
     37 C3        -22.1204  -33.6084   12.6337 C.3         1 PAX       0.1284
     38 O3        -23.4229  -33.3098   12.0735 O.3         1 PAX      -0.2441
     39 PD        -18.1905  -35.5197   13.7674 P.3         1 PAX       0.2008
     40 O1D       -17.3167  -34.8128   12.8598 O.co2       1 PAX      -0.5537
     41 O2D       -18.0582  -36.9398   13.5723 O.co2       1 PAX      -0.5537
     42 O3D       -17.7100  -35.2425   15.1000 O.co2       1 PAX      -0.5537
     43 N1T       -22.7594  -33.5395   16.2945 N.am        1 PAX      -0.1736
     44 C6T       -23.7009  -32.7082   16.8379 C.2         1 PAX       0.0524
     45 C2T       -21.8400  -34.0836   17.1164 C.2         1 PAX       0.3265
     46 O2T       -20.9109  -34.7738   16.7267 O.2         1 PAX      -0.3843
     47 N3T       -21.9250  -33.8941   18.4311 N.am        1 PAX      -0.1859
     48 C4T       -22.9143  -33.1838   18.9718 C.2         1 PAX       0.1930
     49 O4T       -22.9518  -33.1171   20.1945 O.2         1 PAX      -0.4079
     50 C5T       -23.8242  -32.5263   18.1740 C.2         1 PAX       0.0225
     51 CM5       -24.9040  -31.7214   18.7419 C.3         1 PAX      -0.0437
     52 H1        -29.2373  -28.3121   15.2060 H           1 PAX       0.0996
     53 H2        -30.6829  -28.3136   20.2713 H           1 PAX       0.1820
     54 H3        -30.9504  -27.0267   19.2232 H           1 PAX       0.1820
     55 H4        -28.7990  -32.6591   19.9117 H           1 PAX       0.1349
     56 H5        -27.9960  -32.5576   13.4749 H           1 PAX       0.0648
     57 H6        -26.4454  -31.7751   13.8594 H           1 PAX       0.0648
     58 H7        -25.9857  -33.8188   15.3954 H           1 PAX       0.0654
     59 H8        -27.2887  -33.4325   17.9057 H           1 PAX       0.0996
     60 H9        -29.7191  -33.1644   16.0523 H           1 PAX       0.0680
     61 H10       -29.7362  -35.4756   16.9682 H           1 PAX       0.2101
     62 H11       -28.6804  -34.6420   14.5762 H           1 PAX       0.0704
     63 H12       -20.6384  -36.7512   13.2385 H           1 PAX       0.0639
     64 H13       -20.3263  -35.6907   11.8435 H           1 PAX       0.0639
     65 H14       -22.7315  -35.7080   12.5476 H           1 PAX       0.0653
     66 H15       -23.9006  -33.8330   14.5790 H           1 PAX       0.0959
     67 H16       -21.0315  -32.7801   14.3382 H           1 PAX       0.0348
     68 H17       -22.5265  -31.8810   13.9481 H           1 PAX       0.0348
     69 H18       -21.3079  -33.2670   11.9857 H           1 PAX       0.0686
     70 H19       -24.3332  -32.2278   16.2367 H           1 PAX       0.1011
     71 H20       -21.2648  -34.3093   19.0107 H           1 PAX       0.2259
     72 H21       -25.5087  -31.2183   17.9825 H           1 PAX       0.0296
     73 H22       -24.4911  -30.9539   19.3966 H           1 PAX       0.0296
     74 H23       -25.5676  -32.3658   19.3245 H           1 PAX       0.0296
@<TRIPOS>BOND
     1     1     2  ar
     2     1     3  ar
     3     1     4   1
     4     8     1   1
     5     4    23   1
     6     5     6  ar
     7     5     7  ar
     8     5     8   1
     9    38     5   1
    10     9    10  ar
    11     9    11  ar
    12     9    12  ar
    13    30     9   1
    14    13    14   1
    15    13    22   1
    16    26    13   1
    17    14    15  ar
    18    14    20  ar
    19    15    16  ar
    20    16    17  ar
    21    18    17  ar
    22    18    19   1
    23    20    18  ar
    24    21    20   1
    25    22    21   2
    26    23    24   1
    27    24    25   1
    28    24    29   1
    29    25    26   1
    30    27    26   1
    31    27    28   1
    32    29    27   1
    33    29    30   1
    34    32    31   1
    35    31    39   1
    36    33    32   1
    37    33    34   1
    38    37    33   1
    39    35    34   1
    40    36    35   1
    41    35    43   1
    42    37    36   1
    43    37    38   1
    44    39    40  ar
    45    39    41  ar
    46    39    42  ar
    47    43    44   1
    48    43    45  am
    49    44    50   2
    50    45    46   2
    51    45    47  am
    52    47    48  am
    53    48    49   2
    54    48    50   1
    55    50    51   1
    56    16    52   1
    57    19    53   1
    58    19    54   1
    59    22    55   1
    60    23    56   1
    61    23    57   1
    62    24    58   1
    63    26    59   1
    64    27    60   1
    65    28    61   1
    66    29    62   1
    67    32    63   1
    68    32    64   1
    69    33    65   1
    70    35    66   1
    71    36    67   1
    72    36    68   1
    73    37    69   1
    74    44    70   1
    75    47    71   1
    76    51    72   1
    77    51    73   1
    78    51    74   1
@<TRIPOS>SUBSTRUCTURE
     1  PAX     14

