@<TRIPOS>MOLECULE
1u1b_ligand_054
    74    78
SMALL
GAST_HUCK
****
This file was generated by PARSER (from files_GN.cpp)

@<TRIPOS>ATOM
      1 PA        -33.6475  -35.3656   14.6936 P.3         1 PAX       0.2972
      2 O1A       -34.1610  -36.7072   14.6832 O.co2       1 PAX      -0.6127
      3 O2A       -34.2745  -34.6597   13.6049 O.co2       1 PAX      -0.6127
      4 O5        -34.0067  -34.6682   16.0379 O.3         1 PAX      -0.2476
      5 PB        -31.3595  -34.0623   14.3991 P.3         1 PAX       0.2974
      6 O1B       -31.0990  -33.7719   13.0178 O.co2       1 PAX      -0.6127
      7 O2B       -32.0059  -32.9103   14.9685 O.co2       1 PAX      -0.6127
      8 O3A       -32.0970  -35.4332   14.5583 O.3         1 PAX      -0.1319
      9 PG        -36.1439  -33.8953   19.8380 P.3         1 PAX       0.2013
     10 O1G       -36.9947  -34.0760   18.6911 O.co2       1 PAX      -0.5537
     11 O2G       -35.6457  -35.1738   20.2865 O.co2       1 PAX      -0.5537
     12 O3G       -36.9679  -33.3755   20.8987 O.co2       1 PAX      -0.5537
     13 N9A       -30.7387  -31.6124   18.4654 N.pl3       1 PAX      -0.1919
     14 C4A       -29.4814  -32.0304   18.7159 C.ar        1 PAX       0.1613
     15 N3A       -28.9927  -33.1990   19.2048 N.ar        1 PAX      -0.2714
     16 C2A       -27.6516  -33.3755   19.3574 C.ar        1 PAX       0.0533
     17 N1A       -26.7856  -32.3876   18.9979 N.ar        1 PAX      -0.2698
     18 C6A       -27.2244  -31.1996   18.5011 C.ar        1 PAX       0.1298
     19 N6A       -26.3542  -30.2407   18.1540 N.pl3       1 PAX      -0.3152
     20 C5A       -28.6103  -31.0050   18.3600 C.ar        1 PAX       0.1045
     21 N7A       -29.3359  -29.9759   17.9049 N.2         1 PAX      -0.2958
     22 C8A       -30.6225  -30.3585   17.9709 C.2         1 PAX       0.1123
     23 C5        -33.5324  -35.2723   17.2605 C.3         1 PAX       0.1131
     24 C4        -33.2467  -34.1948   18.3361 C.3         1 PAX       0.1235
     25 O4        -31.9259  -33.6541   18.1485 O.3         1 PAX      -0.3360
     26 C1        -31.9381  -32.3532   18.7531 C.3         1 PAX       0.2013
     27 C2        -33.2777  -31.7935   18.2284 C.3         1 PAX       0.1432
     28 O2        -33.7014  -30.6325   18.9397 O.3         1 PAX      -0.3832
     29 C3        -34.2381  -32.9917   18.3636 C.3         1 PAX       0.1487
     30 O3        -34.9926  -32.8744   19.5946 O.3         1 PAX      -0.2674
     31 O5        -28.3948  -37.8733   14.1313 O.3         1 PAX      -0.2734
     32 C5        -27.6711  -37.1795   15.1708 C.3         1 PAX       0.1074
     33 C4        -28.5149  -36.0011   15.7338 C.3         1 PAX       0.1209
     34 O4        -27.7182  -35.2934   16.6999 O.3         1 PAX      -0.3391
     35 C1        -27.3166  -34.0095   16.1735 C.3         1 PAX       0.1760
     36 C2        -27.6897  -34.0437   14.6744 C.3         1 PAX       0.0362
     37 C3        -28.9319  -34.9447   14.6859 C.3         1 PAX       0.1284
     38 O3        -30.0218  -34.1348   15.1848 O.3         1 PAX      -0.2441
     39 PD        -27.7290  -38.0199   12.7270 P.3         1 PAX       0.2008
     40 O1D       -27.7031  -36.7699   12.0123 O.co2       1 PAX      -0.5537
     41 O2D       -28.5137  -38.9498   11.9525 O.co2       1 PAX      -0.5537
     42 O3D       -26.3849  -38.5421   12.8074 O.co2       1 PAX      -0.5537
     43 N1T       -25.9468  -33.6030   16.4641 N.am        1 PAX      -0.1736
     44 C6T       -25.0882  -34.4192   17.1500 C.2         1 PAX       0.0524
     45 C2T       -25.5270  -32.3541   16.1687 C.2         1 PAX       0.3265
     46 O2T       -26.2173  -31.5244   15.5910 O.2         1 PAX      -0.3843
     47 N3T       -24.3315  -31.9342   16.5703 N.am        1 PAX      -0.1859
     48 C4T       -23.5185  -32.7064   17.2786 C.2         1 PAX       0.1930
     49 O4T       -22.4711  -32.2028   17.6553 O.2         1 PAX      -0.4079
     50 C5T       -23.8812  -33.9947   17.5985 C.2         1 PAX       0.0225
     51 CM5       -23.0501  -34.8762   18.4158 C.3         1 PAX      -0.0437
     52 H1        -27.3001  -34.2482   19.7509 H           1 PAX       0.0996
     53 H2        -26.6824  -29.3979   17.8033 H           1 PAX       0.1820
     54 H3        -25.3959  -30.3804   18.2388 H           1 PAX       0.1820
     55 H4        -31.3944  -29.7511   17.6930 H           1 PAX       0.1349
     56 H5        -32.6180  -35.8632   17.1353 H           1 PAX       0.0648
     57 H6        -34.3156  -35.9407   17.6291 H           1 PAX       0.0648
     58 H7        -33.2443  -34.6887   19.3135 H           1 PAX       0.0654
     59 H8        -31.9899  -32.4653   19.8441 H           1 PAX       0.0996
     60 H9        -33.1731  -31.5296   17.1708 H           1 PAX       0.0680
     61 H10       -34.5300  -30.3549   18.4972 H           1 PAX       0.2101
     62 H11       -34.9126  -32.9710   17.5013 H           1 PAX       0.0704
     63 H12       -26.6796  -36.8194   14.8704 H           1 PAX       0.0639
     64 H13       -27.5076  -37.8982   15.9770 H           1 PAX       0.0639
     65 H14       -29.4026  -36.4106   16.2222 H           1 PAX       0.0653
     66 H15       -27.9774  -33.2837   16.6614 H           1 PAX       0.0959
     67 H16       -26.8889  -34.4833   14.0714 H           1 PAX       0.0348
     68 H17       -27.9292  -33.0551   14.2774 H           1 PAX       0.0348
     69 H18       -29.1130  -35.3795   13.6979 H           1 PAX       0.0686
     70 H19       -25.3667  -35.3493   17.3639 H           1 PAX       0.1011
     71 H20       -24.0661  -31.0186   16.3987 H           1 PAX       0.2259
     72 H21       -23.6045  -35.1734   19.3086 H           1 PAX       0.0296
     73 H22       -22.1206  -34.4085   18.7456 H           1 PAX       0.0296
     74 H23       -22.7855  -35.7693   17.8470 H           1 PAX       0.0296
@<TRIPOS>BOND
     1     1     2  ar
     2     1     3  ar
     3     1     4   1
     4     8     1   1
     5     4    23   1
     6     5     6  ar
     7     5     7  ar
     8     5     8   1
     9    38     5   1
    10     9    10  ar
    11     9    11  ar
    12     9    12  ar
    13    30     9   1
    14    13    14   1
    15    13    22   1
    16    26    13   1
    17    14    15  ar
    18    14    20  ar
    19    15    16  ar
    20    16    17  ar
    21    18    17  ar
    22    18    19   1
    23    20    18  ar
    24    21    20   1
    25    22    21   2
    26    23    24   1
    27    24    25   1
    28    24    29   1
    29    25    26   1
    30    27    26   1
    31    27    28   1
    32    29    27   1
    33    29    30   1
    34    32    31   1
    35    31    39   1
    36    33    32   1
    37    33    34   1
    38    37    33   1
    39    35    34   1
    40    36    35   1
    41    35    43   1
    42    37    36   1
    43    37    38   1
    44    39    40  ar
    45    39    41  ar
    46    39    42  ar
    47    43    44   1
    48    43    45  am
    49    44    50   2
    50    45    46   2
    51    45    47  am
    52    47    48  am
    53    48    49   2
    54    48    50   1
    55    50    51   1
    56    16    52   1
    57    19    53   1
    58    19    54   1
    59    22    55   1
    60    23    56   1
    61    23    57   1
    62    24    58   1
    63    26    59   1
    64    27    60   1
    65    28    61   1
    66    29    62   1
    67    32    63   1
    68    32    64   1
    69    33    65   1
    70    35    66   1
    71    36    67   1
    72    36    68   1
    73    37    69   1
    74    44    70   1
    75    47    71   1
    76    51    72   1
    77    51    73   1
    78    51    74   1
@<TRIPOS>SUBSTRUCTURE
     1  PAX     14

