@<TRIPOS>MOLECULE
1u1b_ligand_039
    74    78
SMALL
GAST_HUCK
****
This file was generated by PARSER (from files_GN.cpp)

@<TRIPOS>ATOM
      1 PA        -33.4400  -34.7695   15.8891 P.3         1 PAX       0.2972
      2 O1A       -33.8877  -35.7926   16.8007 O.co2       1 PAX      -0.6127
      3 O2A       -34.6421  -34.3561   15.2021 O.co2       1 PAX      -0.6127
      4 O5        -32.9302  -33.5308   16.6886 O.3         1 PAX      -0.2476
      5 PB        -31.7494  -34.5038   13.8298 P.3         1 PAX       0.2974
      6 O1B       -31.8749  -35.1195   12.5368 O.co2       1 PAX      -0.6127
      7 O2B       -32.2853  -33.1755   13.6628 O.co2       1 PAX      -0.6127
      8 O3A       -32.4633  -35.4193   14.8672 O.3         1 PAX      -0.1319
      9 PG        -33.0434  -29.2034   16.9320 P.3         1 PAX       0.2013
     10 O1G       -33.9351  -29.9856   16.1142 O.co2       1 PAX      -0.5537
     11 O2G       -33.8534  -28.3532   17.7630 O.co2       1 PAX      -0.5537
     12 O3G       -32.2221  -28.3599   16.0989 O.co2       1 PAX      -0.5537
     13 N9A       -27.9585  -31.3040   18.8264 N.pl3       1 PAX      -0.1919
     14 C4A       -27.1364  -32.3329   18.5451 C.ar        1 PAX       0.1613
     15 N3A       -27.3773  -33.5890   18.0891 N.ar        1 PAX      -0.2714
     16 C2A       -26.3403  -34.4500   17.8932 C.ar        1 PAX       0.0533
     17 N1A       -25.0629  -34.0516   18.1462 N.ar        1 PAX      -0.2698
     18 C6A       -24.7749  -32.8055   18.6096 C.ar        1 PAX       0.1298
     19 N6A       -23.5022  -32.4687   18.8613 N.pl3       1 PAX      -0.3152
     20 C5A       -25.8368  -31.9085   18.8175 C.ar        1 PAX       0.1045
     21 N7A       -25.8830  -30.6424   19.2573 N.2         1 PAX      -0.2958
     22 C8A       -27.1785  -30.2890   19.2493 C.2         1 PAX       0.1123
     23 C5        -31.6721  -33.6799   17.3742 C.3         1 PAX       0.1131
     24 C4        -31.3190  -32.3774   18.1365 C.3         1 PAX       0.1235
     25 O4        -30.0109  -32.5348   18.7086 O.3         1 PAX      -0.3360
     26 C1        -29.3877  -31.2442   18.6986 C.3         1 PAX       0.2013
     27 C2        -29.8289  -30.6264   17.3608 C.3         1 PAX       0.1432
     28 O2        -29.6534  -29.2091   17.3317 O.3         1 PAX      -0.3832
     29 C3        -31.3007  -31.0840   17.2657 C.3         1 PAX       0.1487
     30 O3        -32.1977  -30.1142   17.8680 O.3         1 PAX      -0.2674
     31 O5        -28.3847  -38.0432   13.8696 O.3         1 PAX      -0.2734
     32 C5        -27.6215  -37.1122   14.6712 C.3         1 PAX       0.1074
     33 C4        -28.2856  -35.7110   14.8670 C.3         1 PAX       0.1209
     34 O4        -27.2151  -34.7593   15.0311 O.3         1 PAX      -0.3391
     35 C1        -27.3287  -33.7354   14.0347 C.3         1 PAX       0.1760
     36 C2        -28.2611  -34.2916   12.9322 C.3         1 PAX       0.0362
     37 C3        -29.2139  -35.1855   13.7370 C.3         1 PAX       0.1284
     38 O3        -30.2618  -34.3478   14.2899 O.3         1 PAX      -0.2441
     39 PD        -27.9025  -38.3384   12.4141 P.3         1 PAX       0.2008
     40 O1D       -28.0756  -37.2234   11.5207 O.co2       1 PAX      -0.5537
     41 O2D       -28.7024  -39.4178   11.8895 O.co2       1 PAX      -0.5537
     42 O3D       -26.5262  -38.7666   12.3345 O.co2       1 PAX      -0.5537
     43 N1T       -26.0129  -33.2763   13.5931 N.am        1 PAX      -0.1736
     44 C6T       -25.5990  -31.9993   13.8675 C.2         1 PAX       0.0524
     45 C2T       -25.1459  -34.0864   12.9493 C.2         1 PAX       0.3265
     46 O2T       -25.3604  -35.2658   12.7058 O.2         1 PAX      -0.3843
     47 N3T       -23.9701  -33.6267   12.5360 N.am        1 PAX      -0.1859
     48 C4T       -23.5858  -32.3759   12.7660 C.2         1 PAX       0.1930
     49 O4T       -22.5006  -32.0395   12.3115 O.2         1 PAX      -0.4079
     50 C5T       -24.3904  -31.5223   13.4863 C.2         1 PAX       0.0225
     51 CM5       -23.9802  -30.1720   13.8768 C.3         1 PAX      -0.0437
     52 H1        -26.5201  -35.3963   17.5590 H           1 PAX       0.0996
     53 H2        -23.2933  -31.5861   19.2021 H           1 PAX       0.1820
     54 H3        -22.7883  -33.1082   18.7100 H           1 PAX       0.1820
     55 H4        -27.5116  -29.3656   19.5375 H           1 PAX       0.1349
     56 H5        -30.8692  -33.8823   16.6661 H           1 PAX       0.0648
     57 H6        -31.7177  -34.4998   18.0936 H           1 PAX       0.0648
     58 H7        -32.0294  -32.2679   18.9632 H           1 PAX       0.0654
     59 H8        -29.7972  -30.6565   19.5318 H           1 PAX       0.0996
     60 H9        -29.2556  -31.0720   16.5398 H           1 PAX       0.0680
     61 H10       -28.6907  -29.0535   17.1766 H           1 PAX       0.2101
     62 H11       -31.5406  -31.3152   16.2208 H           1 PAX       0.0704
     63 H12       -26.5890  -36.9947   14.3353 H           1 PAX       0.0639
     64 H13       -27.5513  -37.5766   15.6587 H           1 PAX       0.0639
     65 H14       -28.8594  -35.7406   15.7992 H           1 PAX       0.0653
     66 H15       -27.8771  -32.9215   14.5286 H           1 PAX       0.0959
     67 H16       -27.7286  -34.8795   12.1823 H           1 PAX       0.0348
     68 H17       -28.8007  -33.4892   12.4206 H           1 PAX       0.0348
     69 H18       -29.5971  -36.0083   13.1331 H           1 PAX       0.0686
     70 H19       -26.1926  -31.3968   14.3955 H           1 PAX       0.1011
     71 H20       -23.3736  -34.2209   12.0442 H           1 PAX       0.2259
     72 H21       -24.6886  -29.4418   13.4810 H           1 PAX       0.0296
     73 H22       -22.9863  -29.9033   13.5126 H           1 PAX       0.0296
     74 H23       -23.9654  -30.0952   14.9660 H           1 PAX       0.0296
@<TRIPOS>BOND
     1     1     2  ar
     2     1     3  ar
     3     1     4   1
     4     8     1   1
     5     4    23   1
     6     5     6  ar
     7     5     7  ar
     8     5     8   1
     9    38     5   1
    10     9    10  ar
    11     9    11  ar
    12     9    12  ar
    13    30     9   1
    14    13    14   1
    15    13    22   1
    16    26    13   1
    17    14    15  ar
    18    14    20  ar
    19    15    16  ar
    20    16    17  ar
    21    18    17  ar
    22    18    19   1
    23    20    18  ar
    24    21    20   1
    25    22    21   2
    26    23    24   1
    27    24    25   1
    28    24    29   1
    29    25    26   1
    30    27    26   1
    31    27    28   1
    32    29    27   1
    33    29    30   1
    34    32    31   1
    35    31    39   1
    36    33    32   1
    37    33    34   1
    38    37    33   1
    39    35    34   1
    40    36    35   1
    41    35    43   1
    42    37    36   1
    43    37    38   1
    44    39    40  ar
    45    39    41  ar
    46    39    42  ar
    47    43    44   1
    48    43    45  am
    49    44    50   2
    50    45    46   2
    51    45    47  am
    52    47    48  am
    53    48    49   2
    54    48    50   1
    55    50    51   1
    56    16    52   1
    57    19    53   1
    58    19    54   1
    59    22    55   1
    60    23    56   1
    61    23    57   1
    62    24    58   1
    63    26    59   1
    64    27    60   1
    65    28    61   1
    66    29    62   1
    67    32    63   1
    68    32    64   1
    69    33    65   1
    70    35    66   1
    71    36    67   1
    72    36    68   1
    73    37    69   1
    74    44    70   1
    75    47    71   1
    76    51    72   1
    77    51    73   1
    78    51    74   1
@<TRIPOS>SUBSTRUCTURE
     1  PAX     14

