@<TRIPOS>MOLECULE
1u1b_ligand_050
    74    78
SMALL
GAST_HUCK
****
This file was generated by PARSER (from files_GN.cpp)

@<TRIPOS>ATOM
      1 PA        -30.6134  -27.4059   18.1901 P.3         1 PAX       0.2972
      2 O1A       -31.6108  -28.3249   18.6807 O.co2       1 PAX      -0.6127
      3 O2A       -30.4676  -27.7391   16.7943 O.co2       1 PAX      -0.6127
      4 O5        -31.1817  -25.9575   18.2043 O.3         1 PAX      -0.2476
      5 PB        -28.8840  -28.6986   19.7951 P.3         1 PAX       0.2974
      6 O1B       -27.4707  -28.9775   19.7049 O.co2       1 PAX      -0.6127
      7 O2B       -29.0704  -28.2401   21.1514 O.co2       1 PAX      -0.6127
      8 O3A       -29.1809  -27.5505   18.7887 O.3         1 PAX      -0.1319
      9 PG        -32.1332  -21.7331   19.5466 P.3         1 PAX       0.2013
     10 O1G       -31.7583  -22.9205   20.2844 O.co2       1 PAX      -0.5537
     11 O2G       -31.0372  -20.7911   19.5893 O.co2       1 PAX      -0.5537
     12 O3G       -33.2411  -21.1041   20.2262 O.co2       1 PAX      -0.5537
     13 N9A       -31.1763  -23.4162   13.8807 N.pl3       1 PAX      -0.1919
     14 C4A       -31.1899  -24.6454   13.3331 C.ar        1 PAX       0.1613
     15 N3A       -31.2751  -25.8860   13.8766 N.ar        1 PAX      -0.2714
     16 C2A       -31.2648  -26.9876   13.0759 C.ar        1 PAX       0.0533
     17 N1A       -31.1644  -26.8482   11.7237 N.ar        1 PAX      -0.2698
     18 C6A       -31.0738  -25.6285   11.1289 C.ar        1 PAX       0.1298
     19 N6A       -30.9734  -25.5267    9.7971 N.pl3       1 PAX      -0.3152
     20 C5A       -31.0850  -24.4895   11.9517 C.ar        1 PAX       0.1045
     21 N7A       -31.0034  -23.1858   11.6733 N.2         1 PAX      -0.2958
     22 C8A       -31.0570  -22.5436   12.8515 C.2         1 PAX       0.1123
     23 C5        -30.2727  -24.8378   18.2965 C.3         1 PAX       0.1131
     24 C4        -30.7105  -23.6327   17.4242 C.3         1 PAX       0.1235
     25 O4        -30.3789  -23.9005   16.0533 O.3         1 PAX      -0.3360
     26 C1        -31.2179  -23.0561   15.2658 C.3         1 PAX       0.2013
     27 C2        -32.5854  -23.2086   15.9434 C.3         1 PAX       0.1432
     28 O2        -33.4736  -22.1515   15.5750 O.3         1 PAX      -0.3832
     29 C3        -32.2241  -23.2516   17.4509 C.3         1 PAX       0.1487
     30 O3        -32.5276  -21.9694   18.0589 O.3         1 PAX      -0.2674
     31 O5        -32.5376  -33.2963   17.5138 O.3         1 PAX      -0.2734
     32 C5        -31.7450  -32.0902   17.4660 C.3         1 PAX       0.1074
     33 C4        -30.6382  -31.9534   18.5518 C.3         1 PAX       0.1209
     34 O4        -29.7791  -33.1018   18.5148 O.3         1 PAX      -0.3391
     35 C1        -28.3969  -32.6981   18.4657 C.3         1 PAX       0.1760
     36 C2        -28.4421  -31.2979   17.8284 C.3         1 PAX       0.0362
     37 C3        -29.7483  -30.6922   18.3686 C.3         1 PAX       0.1284
     38 O3        -29.6636  -30.0385   19.6527 O.3         1 PAX      -0.2441
     39 PD        -33.5136  -33.5181   18.7060 P.3         1 PAX       0.2008
     40 O1D       -34.7810  -33.9895   18.1958 O.co2       1 PAX      -0.5537
     41 O2D       -33.7429  -32.3741   19.5541 O.co2       1 PAX      -0.5537
     42 O3D       -32.9648  -34.5817   19.5234 O.co2       1 PAX      -0.5537
     43 N1T       -27.5112  -33.6180   17.7547 N.am        1 PAX      -0.1736
     44 C6T       -27.9971  -34.7509   17.1534 C.2         1 PAX       0.0524
     45 C2T       -26.1862  -33.3699   17.6530 C.2         1 PAX       0.3265
     46 O2T       -25.6392  -32.4174   18.1895 O.2         1 PAX      -0.3843
     47 N3T       -25.4076  -34.1685   16.9322 N.am        1 PAX      -0.1859
     48 C4T       -25.8870  -35.2437   16.3173 C.2         1 PAX       0.1930
     49 O4T       -25.0993  -35.9017   15.6543 O.2         1 PAX      -0.4079
     50 C5T       -27.2137  -35.5858   16.4302 C.2         1 PAX       0.0225
     51 CM5       -27.7437  -36.7911   15.8023 C.3         1 PAX      -0.0437
     52 H1        -31.3318  -27.9221   13.4868 H           1 PAX       0.0996
     53 H2        -30.9055  -24.6519    9.3793 H           1 PAX       0.1820
     54 H3        -30.9703  -26.3246    9.2449 H           1 PAX       0.1820
     55 H4        -31.0053  -21.5286   12.9426 H           1 PAX       0.1349
     56 H5        -29.2301  -25.0797   18.0517 H           1 PAX       0.0648
     57 H6        -30.2903  -24.5227   19.3498 H           1 PAX       0.0648
     58 H7        -30.1128  -22.7714   17.7242 H           1 PAX       0.0654
     59 H8        -30.8788  -22.0201   15.3869 H           1 PAX       0.0996
     60 H9        -33.0463  -24.1562   15.6561 H           1 PAX       0.0680
     61 H10       -34.3089  -22.3267   16.0627 H           1 PAX       0.2101
     62 H11       -32.8479  -24.0221   17.9246 H           1 PAX       0.0704
     63 H12       -32.3931  -31.2067   17.4924 H           1 PAX       0.0639
     64 H13       -31.2555  -32.0941   16.4897 H           1 PAX       0.0639
     65 H14       -31.1266  -31.9453   19.5262 H           1 PAX       0.0653
     66 H15       -28.0557  -32.6130   19.5039 H           1 PAX       0.0959
     67 H16       -28.5004  -31.3964   16.7392 H           1 PAX       0.0348
     68 H17       -27.5724  -30.6964   18.0828 H           1 PAX       0.0348
     69 H18       -30.1822  -30.0153   17.6264 H           1 PAX       0.0686
     70 H19       -28.9619  -34.9763   17.2390 H           1 PAX       0.1011
     71 H20       -24.4655  -33.9564   16.8489 H           1 PAX       0.2259
     72 H21       -28.8002  -36.9521   16.0219 H           1 PAX       0.0296
     73 H22       -27.1945  -37.6649   16.1537 H           1 PAX       0.0296
     74 H23       -27.6327  -36.7187   14.7208 H           1 PAX       0.0296
@<TRIPOS>BOND
     1     1     2  ar
     2     1     3  ar
     3     1     4   1
     4     8     1   1
     5     4    23   1
     6     5     6  ar
     7     5     7  ar
     8     5     8   1
     9    38     5   1
    10     9    10  ar
    11     9    11  ar
    12     9    12  ar
    13    30     9   1
    14    13    14   1
    15    13    22   1
    16    26    13   1
    17    14    15  ar
    18    14    20  ar
    19    15    16  ar
    20    16    17  ar
    21    18    17  ar
    22    18    19   1
    23    20    18  ar
    24    21    20   1
    25    22    21   2
    26    23    24   1
    27    24    25   1
    28    24    29   1
    29    25    26   1
    30    27    26   1
    31    27    28   1
    32    29    27   1
    33    29    30   1
    34    32    31   1
    35    31    39   1
    36    33    32   1
    37    33    34   1
    38    37    33   1
    39    35    34   1
    40    36    35   1
    41    35    43   1
    42    37    36   1
    43    37    38   1
    44    39    40  ar
    45    39    41  ar
    46    39    42  ar
    47    43    44   1
    48    43    45  am
    49    44    50   2
    50    45    46   2
    51    45    47  am
    52    47    48  am
    53    48    49   2
    54    48    50   1
    55    50    51   1
    56    16    52   1
    57    19    53   1
    58    19    54   1
    59    22    55   1
    60    23    56   1
    61    23    57   1
    62    24    58   1
    63    26    59   1
    64    27    60   1
    65    28    61   1
    66    29    62   1
    67    32    63   1
    68    32    64   1
    69    33    65   1
    70    35    66   1
    71    36    67   1
    72    36    68   1
    73    37    69   1
    74    44    70   1
    75    47    71   1
    76    51    72   1
    77    51    73   1
    78    51    74   1
@<TRIPOS>SUBSTRUCTURE
     1  PAX     14

