@<TRIPOS>MOLECULE
1u1b_ligand_063
    74    78
SMALL
GAST_HUCK
****
This file was generated by PARSER (from files_GN.cpp)

@<TRIPOS>ATOM
      1 PA        -33.7232  -32.1504   16.9676 P.3         1 PAX       0.2972
      2 O1A       -33.6679  -33.4842   17.5047 O.co2       1 PAX      -0.6127
      3 O2A       -34.5624  -31.3895   17.8549 O.co2       1 PAX      -0.6127
      4 O5        -32.3171  -31.4606   16.9066 O.3         1 PAX      -0.2476
      5 PB        -33.7877  -31.6751   14.3539 P.3         1 PAX       0.2974
      6 O1B       -34.5861  -31.9630   13.1898 O.co2       1 PAX      -0.6127
      7 O2B       -33.7467  -30.2432   14.4732 O.co2       1 PAX      -0.6127
      8 O3A       -34.4896  -32.2672   15.6119 O.3         1 PAX      -0.1319
      9 PG        -27.5603  -32.4231   18.4251 P.3         1 PAX       0.2013
     10 O1G       -26.2626  -32.7606   18.9611 O.co2       1 PAX      -0.5537
     11 O2G       -28.4904  -33.3959   18.9413 O.co2       1 PAX      -0.5537
     12 O3G       -27.4738  -32.5329   16.9873 O.co2       1 PAX      -0.5537
     13 N9A       -30.3572  -27.1251   18.3978 N.pl3       1 PAX      -0.1919
     14 C4A       -30.0577  -26.0476   17.6497 C.ar        1 PAX       0.1613
     15 N3A       -29.1812  -25.8758   16.6273 N.ar        1 PAX      -0.2714
     16 C2A       -29.0799  -24.6687   16.0097 C.ar        1 PAX       0.0533
     17 N1A       -29.8651  -23.6303   16.4119 N.ar        1 PAX      -0.2698
     18 C6A       -30.7665  -23.7571   17.4241 C.ar        1 PAX       0.1298
     19 N6A       -31.5290  -22.7125   17.7794 N.pl3       1 PAX      -0.3152
     20 C5A       -30.8761  -25.0009   18.0678 C.ar        1 PAX       0.1045
     21 N7A       -31.6658  -25.4478   19.0536 N.2         1 PAX      -0.2958
     22 C8A       -31.3443  -26.7434   19.2406 C.2         1 PAX       0.1123
     23 C5        -31.3944  -31.6795   17.9918 C.3         1 PAX       0.1131
     24 C4        -30.2335  -30.6566   17.8744 C.3         1 PAX       0.1235
     25 O4        -30.7849  -29.3386   17.7407 O.3         1 PAX      -0.3360
     26 C1        -29.7979  -28.4388   18.2454 C.3         1 PAX       0.2013
     27 C2        -29.3211  -29.1331   19.5324 C.3         1 PAX       0.1432
     28 O2        -28.0918  -28.5994   20.0232 O.3         1 PAX      -0.3832
     29 C3        -29.2493  -30.6086   19.0894 C.3         1 PAX       0.1487
     30 O3        -27.8722  -30.9468   18.7975 O.3         1 PAX      -0.2674
     31 O5        -34.7395  -35.4306   12.7481 O.3         1 PAX      -0.2734
     32 C5        -33.3102  -35.5982   12.8532 C.3         1 PAX       0.1074
     33 C4        -32.6353  -34.7159   13.9489 C.3         1 PAX       0.1209
     34 O4        -31.5926  -35.5058   14.5291 O.3         1 PAX      -0.3391
     35 C1        -30.4381  -34.6938   14.7141 C.3         1 PAX       0.1760
     36 C2        -30.5020  -33.6375   13.5875 C.3         1 PAX       0.0362
     37 C3        -32.0165  -33.3709   13.4498 C.3         1 PAX       0.1284
     38 O3        -32.3192  -32.1839   14.2163 O.3         1 PAX      -0.2441
     39 PD        -35.6535  -36.1113   13.8176 P.3         1 PAX       0.2008
     40 O1D       -36.2672  -35.0881   14.6308 O.co2       1 PAX      -0.5537
     41 O2D       -35.0149  -37.0697   14.6881 O.co2       1 PAX      -0.5537
     42 O3D       -36.7229  -36.7897   13.1247 O.co2       1 PAX      -0.5537
     43 N1T       -29.2775  -35.5712   14.7711 N.am        1 PAX      -0.1736
     44 C6T       -28.9111  -36.2892   13.6636 C.2         1 PAX       0.0524
     45 C2T       -28.5961  -35.7829   15.9181 C.2         1 PAX       0.3265
     46 O2T       -28.9142  -35.3037   17.0008 O.2         1 PAX      -0.3843
     47 N3T       -27.5408  -36.5918   15.9276 N.am        1 PAX      -0.1859
     48 C4T       -27.1617  -37.2620   14.8419 C.2         1 PAX       0.1930
     49 O4T       -26.2344  -38.0474   14.9765 O.2         1 PAX      -0.4079
     50 C5T       -27.8506  -37.1302   13.6596 C.2         1 PAX       0.0225
     51 CM5       -27.4649  -37.8806   12.4650 C.3         1 PAX      -0.0437
     52 H1        -28.4188  -24.5427   15.2452 H           1 PAX       0.0996
     53 H2        -32.1808  -22.8060   18.4935 H           1 PAX       0.1820
     54 H3        -31.4162  -21.8556   17.3373 H           1 PAX       0.1820
     55 H4        -31.8109  -27.3488   19.9199 H           1 PAX       0.1349
     56 H5        -30.9881  -32.6933   17.9259 H           1 PAX       0.0648
     57 H6        -31.8843  -31.5562   18.9613 H           1 PAX       0.0648
     58 H7        -29.6851  -30.8705   16.9524 H           1 PAX       0.0654
     59 H8        -28.9608  -28.3966   17.5355 H           1 PAX       0.0996
     60 H9        -30.0772  -29.0320   20.3160 H           1 PAX       0.0680
     61 H10       -28.2993  -27.6747   20.2732 H           1 PAX       0.2101
     62 H11       -29.6054  -31.2252   19.9189 H           1 PAX       0.0704
     63 H12       -32.8909  -35.3378   11.8774 H           1 PAX       0.0639
     64 H13       -33.0713  -36.6595   12.9980 H           1 PAX       0.0639
     65 H14       -33.3515  -34.5296   14.7482 H           1 PAX       0.0653
     66 H15       -30.5752  -34.1529   15.6560 H           1 PAX       0.0959
     67 H16       -30.1125  -34.0239   12.6417 H           1 PAX       0.0348
     68 H17       -29.9357  -32.7385   13.8577 H           1 PAX       0.0348
     69 H18       -32.2518  -33.1695   12.4004 H           1 PAX       0.0686
     70 H19       -29.4654  -36.2254   12.8402 H           1 PAX       0.1011
     71 H20       -27.0434  -36.7176   16.7531 H           1 PAX       0.2259
     72 H21       -28.0855  -37.6460   11.6007 H           1 PAX       0.0296
     73 H22       -27.5494  -38.9517   12.6522 H           1 PAX       0.0296
     74 H23       -26.4324  -37.6481   12.2023 H           1 PAX       0.0296
@<TRIPOS>BOND
     1     1     2  ar
     2     1     3  ar
     3     1     4   1
     4     8     1   1
     5     4    23   1
     6     5     6  ar
     7     5     7  ar
     8     5     8   1
     9    38     5   1
    10     9    10  ar
    11     9    11  ar
    12     9    12  ar
    13    30     9   1
    14    13    14   1
    15    13    22   1
    16    26    13   1
    17    14    15  ar
    18    14    20  ar
    19    15    16  ar
    20    16    17  ar
    21    18    17  ar
    22    18    19   1
    23    20    18  ar
    24    21    20   1
    25    22    21   2
    26    23    24   1
    27    24    25   1
    28    24    29   1
    29    25    26   1
    30    27    26   1
    31    27    28   1
    32    29    27   1
    33    29    30   1
    34    32    31   1
    35    31    39   1
    36    33    32   1
    37    33    34   1
    38    37    33   1
    39    35    34   1
    40    36    35   1
    41    35    43   1
    42    37    36   1
    43    37    38   1
    44    39    40  ar
    45    39    41  ar
    46    39    42  ar
    47    43    44   1
    48    43    45  am
    49    44    50   2
    50    45    46   2
    51    45    47  am
    52    47    48  am
    53    48    49   2
    54    48    50   1
    55    50    51   1
    56    16    52   1
    57    19    53   1
    58    19    54   1
    59    22    55   1
    60    23    56   1
    61    23    57   1
    62    24    58   1
    63    26    59   1
    64    27    60   1
    65    28    61   1
    66    29    62   1
    67    32    63   1
    68    32    64   1
    69    33    65   1
    70    35    66   1
    71    36    67   1
    72    36    68   1
    73    37    69   1
    74    44    70   1
    75    47    71   1
    76    51    72   1
    77    51    73   1
    78    51    74   1
@<TRIPOS>SUBSTRUCTURE
     1  PAX     14

