@<TRIPOS>MOLECULE
1u1b_ligand_079
    74    78
SMALL
GAST_HUCK
****
This file was generated by PARSER (from files_GN.cpp)

@<TRIPOS>ATOM
      1 PA        -17.4965  -36.9528   15.6469 P.3         1 PAX       0.2972
      2 O1A       -17.7823  -37.4678   14.3324 O.co2       1 PAX      -0.6127
      3 O2A       -17.9198  -37.9697   16.5764 O.co2       1 PAX      -0.6127
      4 O5        -15.9865  -36.6054   15.8246 O.3         1 PAX      -0.2476
      5 PB        -18.5189  -34.9597   17.1343 P.3         1 PAX       0.2974
      6 O1B       -18.4937  -35.8159   18.2936 O.co2       1 PAX      -0.6127
      7 O2B       -17.5063  -33.9438   17.2704 O.co2       1 PAX      -0.6127
      8 O3A       -18.3890  -35.6835   15.7563 O.3         1 PAX      -0.1319
      9 PG        -11.1348  -39.0006   16.5975 P.3         1 PAX       0.2013
     10 O1G       -11.1347  -37.6852   17.1837 O.co2       1 PAX      -0.5537
     11 O2G       -10.3052  -39.8225   17.4404 O.co2       1 PAX      -0.5537
     12 O3G       -10.5171  -38.9610   15.2961 O.co2       1 PAX      -0.5537
     13 N9A       -15.9508  -42.0793   14.6265 N.pl3       1 PAX      -0.1919
     14 C4A       -16.6400  -41.8807   13.4886 C.ar        1 PAX       0.1613
     15 N3A       -16.8908  -40.7572   12.7673 N.ar        1 PAX      -0.2714
     16 C2A       -17.6440  -40.8314   11.6365 C.ar        1 PAX       0.0533
     17 N1A       -18.1469  -42.0293   11.2250 N.ar        1 PAX      -0.2698
     18 C6A       -17.9185  -43.1818   11.9123 C.ar        1 PAX       0.1298
     19 N6A       -18.4321  -44.3416   11.4728 N.pl3       1 PAX      -0.3152
     20 C5A       -17.1408  -43.1149   13.0805 C.ar        1 PAX       0.1045
     21 N7A       -16.7431  -44.0485   13.9548 N.2         1 PAX      -0.2958
     22 C8A       -16.0171  -43.4047   14.8869 C.2         1 PAX       0.1123
     23 C5        -14.9781  -37.4511   15.2301 C.3         1 PAX       0.1131
     24 C4        -14.7949  -38.8813   15.8175 C.3         1 PAX       0.1235
     25 O4        -15.7989  -39.7845   15.3218 O.3         1 PAX      -0.3360
     26 C1        -15.2498  -41.1069   15.4199 C.3         1 PAX       0.2013
     27 C2        -13.7845  -40.9401   14.9764 C.3         1 PAX       0.1432
     28 O2        -12.9335  -41.9573   15.5098 O.3         1 PAX      -0.3832
     29 C3        -13.4186  -39.5209   15.4612 C.3         1 PAX       0.1487
     30 O3        -12.5757  -39.5936   16.6379 O.3         1 PAX      -0.2674
     31 O5        -22.1777  -34.3169   13.0375 O.3         1 PAX      -0.2734
     32 C5        -22.2083  -34.9990   14.3094 C.3         1 PAX       0.1074
     33 C4        -21.6469  -34.1370   15.4774 C.3         1 PAX       0.1209
     34 O4        -22.6768  -33.3007   16.0344 O.3         1 PAX      -0.3391
     35 C1        -22.9381  -33.6369   17.4141 C.3         1 PAX       0.1760
     36 C2        -22.1953  -34.9668   17.6618 C.3         1 PAX       0.0362
     37 C3        -21.0457  -34.9485   16.6512 C.3         1 PAX       0.1284
     38 O3        -19.8976  -34.2272   17.1736 O.3         1 PAX      -0.2441
     39 PD        -23.3805  -33.4184   12.6250 P.3         1 PAX       0.2008
     40 O1D       -23.6228  -32.3154   13.5192 O.co2       1 PAX      -0.5537
     41 O2D       -24.5850  -34.1807   12.4167 O.co2       1 PAX      -0.5537
     42 O3D       -23.0368  -32.8471   11.3485 O.co2       1 PAX      -0.5537
     43 N1T       -24.3484  -33.6849   17.8039 N.am        1 PAX      -0.1736
     44 C6T       -25.3543  -33.4918   16.8908 C.2         1 PAX       0.0524
     45 C2T       -24.7013  -33.9124   19.0888 C.2         1 PAX       0.3265
     46 O2T       -23.8909  -34.0638   19.9945 O.2         1 PAX      -0.3843
     47 N3T       -25.9844  -33.9900   19.4312 N.am        1 PAX      -0.1859
     48 C4T       -26.9589  -33.8170   18.5438 C.2         1 PAX       0.1930
     49 O4T       -28.1106  -33.9234   18.9447 O.2         1 PAX      -0.4079
     50 C5T       -26.6661  -33.5427   17.2280 C.2         1 PAX       0.0225
     51 CM5       -27.7322  -33.3265   16.2520 C.3         1 PAX      -0.0437
     52 H1        -17.8359  -39.9866   11.0976 H           1 PAX       0.0996
     53 H2        -18.2695  -45.1636   11.9626 H           1 PAX       0.1820
     54 H3        -18.9664  -44.3614   10.6634 H           1 PAX       0.1820
     55 H4        -15.5785  -43.8708   15.6843 H           1 PAX       0.1349
     56 H5        -14.0481  -36.9088   15.4037 H           1 PAX       0.0648
     57 H6        -15.1041  -37.5116   14.1446 H           1 PAX       0.0648
     58 H7        -14.9053  -38.8172   16.9041 H           1 PAX       0.0654
     59 H8        -15.2897  -41.4121   16.4737 H           1 PAX       0.0996
     60 H9        -13.7233  -40.9802   13.8833 H           1 PAX       0.0680
     61 H10       -13.2391  -42.7985   15.1091 H           1 PAX       0.2101
     62 H11       -12.9574  -38.9828   14.6227 H           1 PAX       0.0704
     63 H12       -21.5479  -35.8575   14.1752 H           1 PAX       0.0639
     64 H13       -23.1974  -35.3985   14.5567 H           1 PAX       0.0639
     65 H14       -20.8709  -33.4958   15.0475 H           1 PAX       0.0653
     66 H15       -22.4497  -32.8561   18.0091 H           1 PAX       0.0959
     67 H16       -22.8607  -35.8104   17.4558 H           1 PAX       0.0348
     68 H17       -21.8204  -35.0578   18.6864 H           1 PAX       0.0348
     69 H18       -20.8327  -35.9865   16.3655 H           1 PAX       0.0686
     70 H19       -25.1233  -33.3043   15.9444 H           1 PAX       0.1011
     71 H20       -26.2111  -34.1947   20.3519 H           1 PAX       0.2259
     72 H21       -27.3544  -33.1263   15.2472 H           1 PAX       0.0296
     73 H22       -28.3458  -32.4748   16.5544 H           1 PAX       0.0296
     74 H23       -28.3697  -34.2118   16.1991 H           1 PAX       0.0296
@<TRIPOS>BOND
     1     1     2  ar
     2     1     3  ar
     3     1     4   1
     4     8     1   1
     5     4    23   1
     6     5     6  ar
     7     5     7  ar
     8     5     8   1
     9    38     5   1
    10     9    10  ar
    11     9    11  ar
    12     9    12  ar
    13    30     9   1
    14    13    14   1
    15    13    22   1
    16    26    13   1
    17    14    15  ar
    18    14    20  ar
    19    15    16  ar
    20    16    17  ar
    21    18    17  ar
    22    18    19   1
    23    20    18  ar
    24    21    20   1
    25    22    21   2
    26    23    24   1
    27    24    25   1
    28    24    29   1
    29    25    26   1
    30    27    26   1
    31    27    28   1
    32    29    27   1
    33    29    30   1
    34    32    31   1
    35    31    39   1
    36    33    32   1
    37    33    34   1
    38    37    33   1
    39    35    34   1
    40    36    35   1
    41    35    43   1
    42    37    36   1
    43    37    38   1
    44    39    40  ar
    45    39    41  ar
    46    39    42  ar
    47    43    44   1
    48    43    45  am
    49    44    50   2
    50    45    46   2
    51    45    47  am
    52    47    48  am
    53    48    49   2
    54    48    50   1
    55    50    51   1
    56    16    52   1
    57    19    53   1
    58    19    54   1
    59    22    55   1
    60    23    56   1
    61    23    57   1
    62    24    58   1
    63    26    59   1
    64    27    60   1
    65    28    61   1
    66    29    62   1
    67    32    63   1
    68    32    64   1
    69    33    65   1
    70    35    66   1
    71    36    67   1
    72    36    68   1
    73    37    69   1
    74    44    70   1
    75    47    71   1
    76    51    72   1
    77    51    73   1
    78    51    74   1
@<TRIPOS>SUBSTRUCTURE
     1  PAX     14

