@<TRIPOS>MOLECULE
1u1b_ligand_081
    74    78
SMALL
GAST_HUCK
****
This file was generated by PARSER (from files_GN.cpp)

@<TRIPOS>ATOM
      1 PA        -33.5235  -34.7661   16.0895 P.3         1 PAX       0.2972
      2 O1A       -32.5370  -35.7345   15.6581 O.co2       1 PAX      -0.6127
      3 O2A       -34.1703  -35.2859   17.2744 O.co2       1 PAX      -0.6127
      4 O5        -32.8698  -33.4172   16.5157 O.3         1 PAX      -0.2476
      5 PB        -35.1266  -35.6361   14.1489 P.3         1 PAX       0.2974
      6 O1B       -34.8877  -36.9822   14.6144 O.co2       1 PAX      -0.6127
      7 O2B       -36.5624  -35.5117   14.1216 O.co2       1 PAX      -0.6127
      8 O3A       -34.6377  -34.4552   15.0477 O.3         1 PAX      -0.1319
      9 PG        -32.9089  -28.9295   16.9821 P.3         1 PAX       0.2013
     10 O1G       -33.7903  -29.6050   16.0634 O.co2       1 PAX      -0.5537
     11 O2G       -33.7252  -28.1070   17.8397 O.co2       1 PAX      -0.5537
     12 O3G       -32.0021  -28.0707   16.2614 O.co2       1 PAX      -0.5537
     13 N9A       -27.9966  -31.2474   18.8885 N.pl3       1 PAX      -0.1919
     14 C4A       -27.2041  -32.2982   18.6250 C.ar        1 PAX       0.1613
     15 N3A       -27.4860  -33.5514   18.1805 N.ar        1 PAX      -0.2714
     16 C2A       -26.4760  -34.4441   17.9812 C.ar        1 PAX       0.0533
     17 N1A       -25.1833  -34.0788   18.2173 N.ar        1 PAX      -0.2698
     18 C6A       -24.8558  -32.8351   18.6622 C.ar        1 PAX       0.1298
     19 N6A       -23.5707  -32.5191   18.8693 N.pl3       1 PAX      -0.3152
     20 C5A       -25.8927  -31.9081   18.8786 C.ar        1 PAX       0.1045
     21 N7A       -25.9034  -30.6314   19.2958 N.2         1 PAX      -0.2958
     22 C8A       -27.1893  -30.2426   19.2951 C.2         1 PAX       0.1123
     23 C5        -31.6008  -33.5149   17.2021 C.3         1 PAX       0.1131
     24 C4        -31.3330  -32.2445   18.0410 C.3         1 PAX       0.1235
     25 O4        -30.0633  -32.4235   18.6868 O.3         1 PAX      -0.3360
     26 C1        -29.4162  -31.1466   18.7336 C.3         1 PAX       0.2013
     27 C2        -29.8073  -30.4765   17.4044 C.3         1 PAX       0.1432
     28 O2        -29.6215  -29.0581   17.4235 O.3         1 PAX      -0.3832
     29 C3        -31.2756  -30.9112   17.2371 C.3         1 PAX       0.1487
     30 O3        -32.1636  -29.9586   17.8738 O.3         1 PAX      -0.2674
     31 O5        -31.5998  -34.5212    8.9567 O.3         1 PAX      -0.2734
     32 C5        -31.8904  -34.4997   10.3702 C.3         1 PAX       0.1074
     33 C4        -33.2147  -35.2141   10.7822 C.3         1 PAX       0.1209
     34 O4        -33.3305  -36.4923   10.1408 O.3         1 PAX      -0.3391
     35 C1        -33.1426  -37.5717   11.0821 C.3         1 PAX       0.1760
     36 C2        -32.6722  -36.8740   12.3837 C.3         1 PAX       0.0362
     37 C3        -33.3199  -35.4818   12.2978 C.3         1 PAX       0.1284
     38 O3        -34.7223  -35.4588   12.6543 O.3         1 PAX      -0.2441
     39 PD        -32.4468  -33.6245    8.0095 P.3         1 PAX       0.2008
     40 O1D       -32.4245  -32.2329    8.3936 O.co2       1 PAX      -0.5537
     41 O2D       -33.8048  -34.0928    7.8784 O.co2       1 PAX      -0.5537
     42 O3D       -31.8453  -33.7164    6.7016 O.co2       1 PAX      -0.5537
     43 N1T       -32.2985  -38.6726   10.6234 N.am        1 PAX      -0.1736
     44 C6T       -31.8547  -39.5987   11.5394 C.2         1 PAX       0.0524
     45 C2T       -31.9654  -38.8647    9.3272 C.2         1 PAX       0.3265
     46 O2T       -32.3153  -38.1489    8.4014 O.2         1 PAX      -0.3843
     47 N3T       -31.2192  -39.9097    8.9753 N.am        1 PAX      -0.1859
     48 C4T       -30.7723  -40.7855    9.8639 C.2         1 PAX       0.1930
     49 O4T       -30.0975  -41.7105    9.4336 O.2         1 PAX      -0.4079
     50 C5T       -31.0621  -40.6420   11.1999 C.2         1 PAX       0.0225
     51 CM5       -30.5232  -41.5150   12.2384 C.3         1 PAX      -0.0437
     52 H1        -26.6904  -35.3847   17.6539 H           1 PAX       0.0996
     53 H2        -23.3305  -31.6293   19.1728 H           1 PAX       0.1820
     54 H3        -22.8727  -33.1754   18.7036 H           1 PAX       0.1820
     55 H4        -27.4987  -29.3087   19.5576 H           1 PAX       0.1349
     56 H5        -30.8032  -33.6301   16.4609 H           1 PAX       0.0648
     57 H6        -31.5635  -34.3737   17.8872 H           1 PAX       0.0648
     58 H7        -32.1052  -32.1838   18.8164 H           1 PAX       0.0654
     59 H8        -29.8353  -30.5882   19.5785 H           1 PAX       0.0996
     60 H9        -29.2099  -30.8918   16.5850 H           1 PAX       0.0680
     61 H10       -28.6676  -28.9090   17.2294 H           1 PAX       0.2101
     62 H11       -31.4845  -31.0839   16.1720 H           1 PAX       0.0704
     63 H12       -31.8869  -33.4789   10.7678 H           1 PAX       0.0639
     64 H13       -31.0481  -35.0147   10.8359 H           1 PAX       0.0639
     65 H14       -34.0512  -34.5920   10.4511 H           1 PAX       0.0653
     66 H15       -34.1404  -37.9860   11.2683 H           1 PAX       0.0959
     67 H16       -31.5812  -36.7865   12.3929 H           1 PAX       0.0348
     68 H17       -32.9875  -37.4236   13.2731 H           1 PAX       0.0348
     69 H18       -32.7533  -34.7280   12.8530 H           1 PAX       0.0686
     70 H19       -32.1036  -39.4977   12.5001 H           1 PAX       0.1011
     71 H20       -31.0094  -40.0396    8.0401 H           1 PAX       0.2259
     72 H21       -29.8914  -40.9351   12.9154 H           1 PAX       0.0296
     73 H22       -29.9174  -42.3282   11.8343 H           1 PAX       0.0296
     74 H23       -31.3374  -41.9579   12.8151 H           1 PAX       0.0296
@<TRIPOS>BOND
     1     1     2  ar
     2     1     3  ar
     3     1     4   1
     4     8     1   1
     5     4    23   1
     6     5     6  ar
     7     5     7  ar
     8     5     8   1
     9    38     5   1
    10     9    10  ar
    11     9    11  ar
    12     9    12  ar
    13    30     9   1
    14    13    14   1
    15    13    22   1
    16    26    13   1
    17    14    15  ar
    18    14    20  ar
    19    15    16  ar
    20    16    17  ar
    21    18    17  ar
    22    18    19   1
    23    20    18  ar
    24    21    20   1
    25    22    21   2
    26    23    24   1
    27    24    25   1
    28    24    29   1
    29    25    26   1
    30    27    26   1
    31    27    28   1
    32    29    27   1
    33    29    30   1
    34    32    31   1
    35    31    39   1
    36    33    32   1
    37    33    34   1
    38    37    33   1
    39    35    34   1
    40    36    35   1
    41    35    43   1
    42    37    36   1
    43    37    38   1
    44    39    40  ar
    45    39    41  ar
    46    39    42  ar
    47    43    44   1
    48    43    45  am
    49    44    50   2
    50    45    46   2
    51    45    47  am
    52    47    48  am
    53    48    49   2
    54    48    50   1
    55    50    51   1
    56    16    52   1
    57    19    53   1
    58    19    54   1
    59    22    55   1
    60    23    56   1
    61    23    57   1
    62    24    58   1
    63    26    59   1
    64    27    60   1
    65    28    61   1
    66    29    62   1
    67    32    63   1
    68    32    64   1
    69    33    65   1
    70    35    66   1
    71    36    67   1
    72    36    68   1
    73    37    69   1
    74    44    70   1
    75    47    71   1
    76    51    72   1
    77    51    73   1
    78    51    74   1
@<TRIPOS>SUBSTRUCTURE
     1  PAX     14

