@<TRIPOS>MOLECULE
1u1b_ligand_064
    74    78
SMALL
GAST_HUCK
****
This file was generated by PARSER (from files_GN.cpp)

@<TRIPOS>ATOM
      1 PA        -21.4847  -35.0891   18.0251 P.3         1 PAX       0.2972
      2 O1A       -21.1216  -36.0948   18.9960 O.co2       1 PAX      -0.6127
      3 O2A       -21.4360  -35.7445   16.7399 O.co2       1 PAX      -0.6127
      4 O5        -22.9657  -34.7347   18.3701 O.3         1 PAX      -0.2476
      5 PB        -19.1469  -33.8980   17.4582 P.3         1 PAX       0.2974
      6 O1B       -19.1905  -32.7599   16.5650 O.co2       1 PAX      -0.6127
      7 O2B       -18.0773  -33.5936   18.3873 O.co2       1 PAX      -0.6127
      8 O3A       -20.5464  -33.8464   18.1640 O.3         1 PAX      -0.1319
      9 PG        -27.1521  -36.7558   15.4243 P.3         1 PAX       0.2013
     10 O1G       -28.4792  -37.3188   15.3092 O.co2       1 PAX      -0.5537
     11 O2G       -26.8266  -36.2360   14.1169 O.co2       1 PAX      -0.5537
     12 O3G       -26.2864  -37.8668   15.7499 O.co2       1 PAX      -0.5537
     13 N9A       -27.4115  -31.7333   18.6741 N.pl3       1 PAX      -0.1919
     14 C4A       -28.6620  -31.2479   18.6057 C.ar        1 PAX       0.1613
     15 N3A       -29.8226  -31.8408   18.2287 N.ar        1 PAX      -0.2714
     16 C2A       -30.9728  -31.1262   18.1987 C.ar        1 PAX       0.0533
     17 N1A       -30.9641  -29.8129   18.5562 N.ar        1 PAX      -0.2698
     18 C6A       -29.8267  -29.1730   18.9498 C.ar        1 PAX       0.1298
     19 N6A       -29.8867  -27.8746   19.2812 N.pl3       1 PAX      -0.3152
     20 C5A       -28.6283  -29.9061   18.9849 C.ar        1 PAX       0.1045
     21 N7A       -27.3590  -29.5980   19.2997 N.2         1 PAX      -0.2958
     22 C8A       -26.6355  -30.7166   19.1119 C.2         1 PAX       0.1123
     23 C5        -23.8553  -34.5577   17.2446 C.3         1 PAX       0.1131
     24 C4        -25.3348  -34.5238   17.7101 C.3         1 PAX       0.1235
     25 O4        -25.6181  -33.3391   18.4797 O.3         1 PAX      -0.3360
     26 C1        -27.0143  -33.0564   18.2895 C.3         1 PAX       0.2013
     27 C2        -27.1947  -33.2977   16.7783 C.3         1 PAX       0.1432
     28 O2        -28.5545  -33.4667   16.3703 O.3         1 PAX      -0.3832
     29 C3        -26.3392  -34.5468   16.5192 C.3         1 PAX       0.1487
     30 O3        -27.2078  -35.7085   16.5768 O.3         1 PAX      -0.2674
     31 O5        -15.8599  -35.7635   13.6409 O.3         1 PAX      -0.2734
     32 C5        -17.2001  -36.2922   13.5246 C.3         1 PAX       0.1074
     33 C4        -17.7409  -36.5994   14.9420 C.3         1 PAX       0.1209
     34 O4        -17.0204  -37.7422   15.4409 O.3         1 PAX      -0.3391
     35 C1        -16.7844  -37.5205   16.8334 C.3         1 PAX       0.1760
     36 C2        -16.5726  -35.9905   16.9706 C.3         1 PAX       0.0362
     37 C3        -17.5971  -35.4249   15.9677 C.3         1 PAX       0.1284
     38 O3        -18.8760  -35.1839   16.6039 O.3         1 PAX      -0.2441
     39 PD        -15.1520  -35.3831   12.3030 P.3         1 PAX       0.2008
     40 O1D       -13.8545  -34.8542   12.6406 O.co2       1 PAX      -0.5537
     41 O2D       -15.8666  -34.3547   11.5885 O.co2       1 PAX      -0.5537
     42 O3D       -14.9436  -36.5294   11.4497 O.co2       1 PAX      -0.5537
     43 N1T       -15.7176  -38.4013   17.2847 N.am        1 PAX      -0.1736
     44 C6T       -14.4095  -38.1321   16.9756 C.2         1 PAX       0.0524
     45 C2T       -15.9751  -39.5283   17.9858 C.2         1 PAX       0.3265
     46 O2T       -17.1021  -39.9441   18.2293 O.2         1 PAX      -0.3843
     47 N3T       -14.9764  -40.2797   18.4393 N.am        1 PAX      -0.1859
     48 C4T       -13.7029  -39.9564   18.2351 C.2         1 PAX       0.1930
     49 O4T       -12.8590  -40.7040   18.7108 O.2         1 PAX      -0.4079
     50 C5T       -13.3782  -38.8450   17.4826 C.2         1 PAX       0.0225
     51 CM5       -11.9841  -38.4744   17.2591 C.3         1 PAX      -0.0437
     52 H1        -31.8440  -31.5709   17.9093 H           1 PAX       0.0996
     53 H2        -29.1007  -27.3967   19.5881 H           1 PAX       0.1820
     54 H3        -30.7348  -27.4072   19.2358 H           1 PAX       0.1820
     55 H4        -25.6244  -30.7632   19.2613 H           1 PAX       0.1349
     56 H5        -23.7472  -35.3898   16.5402 H           1 PAX       0.0648
     57 H6        -23.6229  -33.6306   16.7151 H           1 PAX       0.0648
     58 H7        -25.5185  -35.3832   18.3677 H           1 PAX       0.0654
     59 H8        -27.6089  -33.7700   18.8714 H           1 PAX       0.0996
     60 H9        -26.7812  -32.4445   16.2270 H           1 PAX       0.0680
     61 H10       -28.5095  -33.5444   15.3917 H           1 PAX       0.2101
     62 H11       -25.8363  -34.4130   15.5532 H           1 PAX       0.0704
     63 H12       -17.2030  -37.2244   12.9498 H           1 PAX       0.0639
     64 H13       -17.8725  -35.5770   13.0439 H           1 PAX       0.0639
     65 H14       -18.7961  -36.8890   14.8548 H           1 PAX       0.0653
     66 H15       -17.7240  -37.7500   17.3562 H           1 PAX       0.0959
     67 H16       -15.5603  -35.6889   16.6880 H           1 PAX       0.0348
     68 H17       -16.7650  -35.6483   17.9876 H           1 PAX       0.0348
     69 H18       -17.2114  -34.5233   15.4739 H           1 PAX       0.0686
     70 H19       -14.1964  -37.3897   16.3525 H           1 PAX       0.1011
     71 H20       -15.1846  -41.0906   18.9382 H           1 PAX       0.2259
     72 H21       -11.8882  -37.5526   16.6797 H           1 PAX       0.0296
     73 H22       -11.4634  -39.2715   16.7225 H           1 PAX       0.0296
     74 H23       -11.4888  -38.3189   18.2222 H           1 PAX       0.0296
@<TRIPOS>BOND
     1     1     2  ar
     2     1     3  ar
     3     1     4   1
     4     8     1   1
     5     4    23   1
     6     5     6  ar
     7     5     7  ar
     8     5     8   1
     9    38     5   1
    10     9    10  ar
    11     9    11  ar
    12     9    12  ar
    13    30     9   1
    14    13    14   1
    15    13    22   1
    16    26    13   1
    17    14    15  ar
    18    14    20  ar
    19    15    16  ar
    20    16    17  ar
    21    18    17  ar
    22    18    19   1
    23    20    18  ar
    24    21    20   1
    25    22    21   2
    26    23    24   1
    27    24    25   1
    28    24    29   1
    29    25    26   1
    30    27    26   1
    31    27    28   1
    32    29    27   1
    33    29    30   1
    34    32    31   1
    35    31    39   1
    36    33    32   1
    37    33    34   1
    38    37    33   1
    39    35    34   1
    40    36    35   1
    41    35    43   1
    42    37    36   1
    43    37    38   1
    44    39    40  ar
    45    39    41  ar
    46    39    42  ar
    47    43    44   1
    48    43    45  am
    49    44    50   2
    50    45    46   2
    51    45    47  am
    52    47    48  am
    53    48    49   2
    54    48    50   1
    55    50    51   1
    56    16    52   1
    57    19    53   1
    58    19    54   1
    59    22    55   1
    60    23    56   1
    61    23    57   1
    62    24    58   1
    63    26    59   1
    64    27    60   1
    65    28    61   1
    66    29    62   1
    67    32    63   1
    68    32    64   1
    69    33    65   1
    70    35    66   1
    71    36    67   1
    72    36    68   1
    73    37    69   1
    74    44    70   1
    75    47    71   1
    76    51    72   1
    77    51    73   1
    78    51    74   1
@<TRIPOS>SUBSTRUCTURE
     1  PAX     14

