@<TRIPOS>MOLECULE
1u1b_ligand_034
    74    78
SMALL
GAST_HUCK
****
This file was generated by PARSER (from files_GN.cpp)

@<TRIPOS>ATOM
      1 PA        -21.4812  -34.6983   17.8432 P.3         1 PAX       0.2972
      2 O1A       -21.2441  -33.6530   18.8196 O.co2       1 PAX      -0.6127
      3 O2A       -20.8626  -35.8541   18.4511 O.co2       1 PAX      -0.6127
      4 O5        -22.9930  -35.0056   17.8248 O.3         1 PAX      -0.2476
      5 PB        -19.8294  -35.1838   15.7663 P.3         1 PAX       0.2974
      6 O1B       -18.7679  -35.6059   16.6504 O.co2       1 PAX      -0.6127
      7 O2B       -20.4955  -36.3498   15.2321 O.co2       1 PAX      -0.6127
      8 O3A       -20.8220  -34.2284   16.5128 O.3         1 PAX      -0.1319
      9 PG        -27.1549  -36.8224   15.2370 P.3         1 PAX       0.2013
     10 O1G       -28.4810  -37.3846   15.1226 O.co2       1 PAX      -0.5537
     11 O2G       -26.8076  -36.3831   13.9061 O.co2       1 PAX      -0.5537
     12 O3G       -26.2920  -37.9124   15.6453 O.co2       1 PAX      -0.5537
     13 N9A       -27.3087  -31.8553   18.4530 N.pl3       1 PAX      -0.1919
     14 C4A       -28.5555  -31.3618   18.4944 C.ar        1 PAX       0.1613
     15 N3A       -29.7415  -31.9296   18.1629 N.ar        1 PAX      -0.2714
     16 C2A       -30.8903  -31.2119   18.2554 C.ar        1 PAX       0.0533
     17 N1A       -30.8459  -29.9210   18.6784 N.ar        1 PAX      -0.2698
     18 C6A       -29.6819  -29.3068   19.0204 C.ar        1 PAX       0.1298
     19 N6A       -29.7211  -28.0190   19.4001 N.pl3       1 PAX      -0.3152
     20 C5A       -28.4839  -30.0430   18.9449 C.ar        1 PAX       0.1045
     21 N7A       -27.1995  -29.7575   19.2027 N.2         1 PAX      -0.2958
     22 C8A       -26.4981  -30.8736   18.9161 C.2         1 PAX       0.1123
     23 C5        -23.8169  -34.3847   16.8166 C.3         1 PAX       0.1131
     24 C4        -25.2878  -34.5824   17.2526 C.3         1 PAX       0.1235
     25 O4        -25.6124  -33.5397   18.1929 O.3         1 PAX      -0.3360
     26 C1        -26.9657  -33.1512   17.9498 C.3         1 PAX       0.2013
     27 C2        -27.0758  -33.2132   16.4106 C.3         1 PAX       0.1432
     28 O2        -28.4166  -33.2172   15.9024 O.3         1 PAX      -0.3832
     29 C3        -26.3260  -34.5184   16.0925 C.3         1 PAX       0.1487
     30 O3        -27.2854  -35.5986   16.1798 O.3         1 PAX      -0.2674
     31 O5        -14.9833  -34.6899   13.9303 O.3         1 PAX      -0.2734
     32 C5        -15.5140  -34.1463   15.1650 C.3         1 PAX       0.1074
     33 C4        -16.9785  -33.6685   15.0251 C.3         1 PAX       0.1209
     34 O4        -17.0347  -32.3487   14.4818 O.3         1 PAX      -0.3391
     35 C1        -17.3859  -32.3853   13.0813 C.3         1 PAX       0.1760
     36 C2        -17.7044  -33.8752   12.7733 C.3         1 PAX       0.0362
     37 C3        -17.9030  -34.5324   14.1385 C.3         1 PAX       0.1284
     38 O3        -19.2923  -34.3775   14.5320 O.3         1 PAX      -0.2441
     39 PD        -13.4495  -34.9563   13.8933 P.3         1 PAX       0.2008
     40 O1D       -13.2051  -36.2969   13.4150 O.co2       1 PAX      -0.5537
     41 O2D       -12.7481  -34.7560   15.1378 O.co2       1 PAX      -0.5537
     42 O3D       -12.8791  -34.0597   12.9158 O.co2       1 PAX      -0.5537
     43 N1T       -16.4342  -31.7341   12.1862 N.am        1 PAX      -0.1736
     44 C6T       -16.4766  -31.9964   10.8499 C.2         1 PAX       0.0524
     45 C2T       -15.5556  -30.7918   12.6030 C.2         1 PAX       0.3265
     46 O2T       -15.4795  -30.3605   13.7442 O.2         1 PAX      -0.3843
     47 N3T       -14.7531  -30.1783   11.7313 N.am        1 PAX      -0.1859
     48 C4T       -14.7799  -30.4574   10.4343 C.2         1 PAX       0.1930
     49 O4T       -14.0294  -29.8149    9.7096 O.2         1 PAX      -0.4079
     50 C5T       -15.6575  -31.4005    9.9475 C.2         1 PAX       0.0225
     51 CM5       -15.7439  -31.7613    8.5279 C.3         1 PAX      -0.0437
     52 H1        -31.7808  -31.6400   18.0095 H           1 PAX       0.0996
     53 H2        -28.9197  -27.5381   19.6406 H           1 PAX       0.1820
     54 H3        -30.5707  -27.5606   19.4249 H           1 PAX       0.1820
     55 H4        -25.4769  -30.9384   19.0056 H           1 PAX       0.1349
     56 H5        -23.6315  -34.8898   15.8611 H           1 PAX       0.0648
     57 H6        -23.6241  -33.3151   16.6971 H           1 PAX       0.0648
     58 H7        -25.3951  -35.5418   17.7608 H           1 PAX       0.0654
     59 H8        -27.6255  -33.8929   18.4076 H           1 PAX       0.0996
     60 H9        -26.5427  -32.3662   15.9494 H           1 PAX       0.0680
     61 H10       -28.7396  -32.2934   15.9919 H           1 PAX       0.2101
     62 H11       -25.8855  -34.4481   15.0914 H           1 PAX       0.0704
     63 H12       -14.9139  -33.2786   15.4564 H           1 PAX       0.0639
     64 H13       -15.4622  -34.8943   15.9674 H           1 PAX       0.0639
     65 H14       -17.3831  -33.6288   16.0344 H           1 PAX       0.0653
     66 H15       -18.3161  -31.8228   12.9948 H           1 PAX       0.0959
     67 H16       -16.8587  -34.3426   12.2476 H           1 PAX       0.0348
     68 H17       -18.5909  -33.9719   12.1316 H           1 PAX       0.0348
     69 H18       -17.5980  -35.5887   14.0885 H           1 PAX       0.0686
     70 H19       -17.1432  -32.6448   10.5016 H           1 PAX       0.1011
     71 H20       -14.1418  -29.4857   12.0435 H           1 PAX       0.2259
     72 H21       -15.5038  -32.8242    8.4034 H           1 PAX       0.0296
     73 H22       -15.0556  -31.1875    7.8963 H           1 PAX       0.0296
     74 H23       -16.7618  -31.5831    8.1602 H           1 PAX       0.0296
@<TRIPOS>BOND
     1     1     2  ar
     2     1     3  ar
     3     1     4   1
     4     8     1   1
     5     4    23   1
     6     5     6  ar
     7     5     7  ar
     8     5     8   1
     9    38     5   1
    10     9    10  ar
    11     9    11  ar
    12     9    12  ar
    13    30     9   1
    14    13    14   1
    15    13    22   1
    16    26    13   1
    17    14    15  ar
    18    14    20  ar
    19    15    16  ar
    20    16    17  ar
    21    18    17  ar
    22    18    19   1
    23    20    18  ar
    24    21    20   1
    25    22    21   2
    26    23    24   1
    27    24    25   1
    28    24    29   1
    29    25    26   1
    30    27    26   1
    31    27    28   1
    32    29    27   1
    33    29    30   1
    34    32    31   1
    35    31    39   1
    36    33    32   1
    37    33    34   1
    38    37    33   1
    39    35    34   1
    40    36    35   1
    41    35    43   1
    42    37    36   1
    43    37    38   1
    44    39    40  ar
    45    39    41  ar
    46    39    42  ar
    47    43    44   1
    48    43    45  am
    49    44    50   2
    50    45    46   2
    51    45    47  am
    52    47    48  am
    53    48    49   2
    54    48    50   1
    55    50    51   1
    56    16    52   1
    57    19    53   1
    58    19    54   1
    59    22    55   1
    60    23    56   1
    61    23    57   1
    62    24    58   1
    63    26    59   1
    64    27    60   1
    65    28    61   1
    66    29    62   1
    67    32    63   1
    68    32    64   1
    69    33    65   1
    70    35    66   1
    71    36    67   1
    72    36    68   1
    73    37    69   1
    74    44    70   1
    75    47    71   1
    76    51    72   1
    77    51    73   1
    78    51    74   1
@<TRIPOS>SUBSTRUCTURE
     1  PAX     14

