@<TRIPOS>MOLECULE
1u1b_ligand_045
    74    78
SMALL
GAST_HUCK
****
This file was generated by PARSER (from files_GN.cpp)

@<TRIPOS>ATOM
      1 PA        -31.9799  -33.8941   15.7304 P.3         1 PAX       0.2972
      2 O1A       -31.7451  -35.2484   15.3006 O.co2       1 PAX      -0.6127
      3 O2A       -33.3897  -33.8230   16.0145 O.co2       1 PAX      -0.6127
      4 O5        -31.2085  -33.6120   17.0563 O.3         1 PAX      -0.2476
      5 PB        -30.2994  -32.8131   13.9629 P.3         1 PAX       0.2974
      6 O1B       -29.1645  -33.0921   14.8117 O.co2       1 PAX      -0.6127
      7 O2B       -30.3002  -33.7732   12.8846 O.co2       1 PAX      -0.6127
      8 O3A       -31.7064  -32.8189   14.6349 O.3         1 PAX      -0.1319
      9 PG        -29.3594  -28.6411   20.4523 P.3         1 PAX       0.2013
     10 O1G       -30.3393  -28.1422   21.3844 O.co2       1 PAX      -0.5537
     11 O2G       -28.0849  -28.5370   21.1161 O.co2       1 PAX      -0.5537
     12 O3G       -29.3781  -27.7667   19.3051 O.co2       1 PAX      -0.5537
     13 N9A       -27.0430  -33.0863   17.9957 N.pl3       1 PAX      -0.1919
     14 C4A       -27.2130  -34.1969   17.2506 C.ar        1 PAX       0.1613
     15 N3A       -28.2913  -34.9962   17.0436 N.ar        1 PAX      -0.2714
     16 C2A       -28.1968  -36.0654   16.2062 C.ar        1 PAX       0.0533
     17 N1A       -27.0266  -36.3301   15.5630 N.ar        1 PAX      -0.2698
     18 C6A       -25.9192  -35.5605   15.7410 C.ar        1 PAX       0.1298
     19 N6A       -24.7868  -35.8396   15.0731 N.pl3       1 PAX      -0.3152
     20 C5A       -26.0014  -34.4662   16.6190 C.ar        1 PAX       0.1045
     21 N7A       -25.1000  -33.5500   16.9998 N.2         1 PAX      -0.2958
     22 C8A       -25.7492  -32.7228   17.8445 C.2         1 PAX       0.1123
     23 C5        -31.3202  -32.2687   17.5824 C.3         1 PAX       0.1131
     24 C4        -30.3531  -32.0358   18.7880 C.3         1 PAX       0.1235
     25 O4        -29.2995  -33.0135   18.7909 O.3         1 PAX      -0.3360
     26 C1        -28.0181  -32.3660   18.7761 C.3         1 PAX       0.2013
     27 C2        -28.2910  -30.9479   18.2345 C.3         1 PAX       0.1432
     28 O2        -27.2704  -30.0229   18.6101 O.3         1 PAX      -0.3832
     29 C3        -29.6898  -30.6269   18.8050 C.3         1 PAX       0.1487
     30 O3        -29.7037  -30.1348   20.1685 O.3         1 PAX      -0.2674
     31 O5        -31.9145  -28.9479   15.7583 O.3         1 PAX      -0.2734
     32 C5        -31.0361  -28.1739   14.9115 C.3         1 PAX       0.1074
     33 C4        -30.5368  -29.0394   13.7218 C.3         1 PAX       0.1209
     34 O4        -29.6876  -28.2033   12.9063 O.3         1 PAX      -0.3391
     35 C1        -28.4815  -28.9253   12.6111 C.3         1 PAX       0.1760
     36 C2        -28.2847  -29.8746   13.8049 C.3         1 PAX       0.0362
     37 C3        -29.7254  -30.3000   14.1272 C.3         1 PAX       0.1284
     38 O3        -30.1038  -31.4256   13.2866 O.3         1 PAX      -0.2441
     39 PD        -32.6582  -28.1560   16.8790 P.3         1 PAX       0.2008
     40 O1D       -31.7860  -27.3603   17.7106 O.co2       1 PAX      -0.5537
     41 O2D       -33.3249  -29.1015   17.7353 O.co2       1 PAX      -0.5537
     42 O3D       -33.6679  -27.3072   16.2911 O.co2       1 PAX      -0.5537
     43 N1T       -27.3357  -28.0637   12.3641 N.am        1 PAX      -0.1736
     44 C6T       -27.1464  -26.9278   13.1094 C.2         1 PAX       0.0524
     45 C2T       -26.4329  -28.3473   11.4037 C.2         1 PAX       0.3265
     46 O2T       -26.4731  -29.3554   10.7121 O.2         1 PAX      -0.3843
     47 N3T       -25.4229  -27.5196   11.1628 N.am        1 PAX      -0.1859
     48 C4T       -25.2650  -26.3928   11.8480 C.2         1 PAX       0.1930
     49 O4T       -24.3139  -25.6869   11.5436 O.2         1 PAX      -0.4079
     50 C5T       -26.1345  -26.0605   12.8620 C.2         1 PAX       0.0225
     51 CM5       -25.9711  -24.8136   13.6045 C.3         1 PAX      -0.0437
     52 H1        -29.0091  -36.6643   16.0513 H           1 PAX       0.0996
     53 H2        -24.0015  -35.2857   15.1902 H           1 PAX       0.1820
     54 H3        -24.7596  -36.5923   14.4588 H           1 PAX       0.1820
     55 H4        -25.3018  -31.9208   18.2963 H           1 PAX       0.1349
     56 H5        -32.3466  -32.0815   17.9179 H           1 PAX       0.0648
     57 H6        -31.0932  -31.5444   16.7960 H           1 PAX       0.0648
     58 H7        -30.9259  -32.1951   19.7021 H           1 PAX       0.0654
     59 H8        -27.6640  -32.3045   19.8105 H           1 PAX       0.0996
     60 H9        -28.3473  -30.9868   17.1381 H           1 PAX       0.0680
     61 H10       -27.4190  -29.2379   18.0341 H           1 PAX       0.2101
     62 H11       -30.2210  -29.9302   18.1444 H           1 PAX       0.0704
     63 H12       -30.1693  -27.8312   15.4863 H           1 PAX       0.0639
     64 H13       -31.5446  -27.2987   14.4922 H           1 PAX       0.0639
     65 H14       -31.4074  -29.3284   13.1232 H           1 PAX       0.0653
     66 H15       -28.7126  -29.5291   11.7267 H           1 PAX       0.0959
     67 H16       -27.8591  -29.3388   14.6588 H           1 PAX       0.0348
     68 H17       -27.6441  -30.7223   13.5535 H           1 PAX       0.0348
     69 H18       -29.8157  -30.4920   15.2028 H           1 PAX       0.0686
     70 H19       -27.7774  -26.7224   13.8533 H           1 PAX       0.1011
     71 H20       -24.7879  -27.7391   10.4640 H           1 PAX       0.2259
     72 H21       -26.7234  -24.6840   14.3871 H           1 PAX       0.0296
     73 H22       -26.0516  -23.9673   12.9173 H           1 PAX       0.0296
     74 H23       -24.9862  -24.7848   14.0772 H           1 PAX       0.0296
@<TRIPOS>BOND
     1     1     2  ar
     2     1     3  ar
     3     1     4   1
     4     8     1   1
     5     4    23   1
     6     5     6  ar
     7     5     7  ar
     8     5     8   1
     9    38     5   1
    10     9    10  ar
    11     9    11  ar
    12     9    12  ar
    13    30     9   1
    14    13    14   1
    15    13    22   1
    16    26    13   1
    17    14    15  ar
    18    14    20  ar
    19    15    16  ar
    20    16    17  ar
    21    18    17  ar
    22    18    19   1
    23    20    18  ar
    24    21    20   1
    25    22    21   2
    26    23    24   1
    27    24    25   1
    28    24    29   1
    29    25    26   1
    30    27    26   1
    31    27    28   1
    32    29    27   1
    33    29    30   1
    34    32    31   1
    35    31    39   1
    36    33    32   1
    37    33    34   1
    38    37    33   1
    39    35    34   1
    40    36    35   1
    41    35    43   1
    42    37    36   1
    43    37    38   1
    44    39    40  ar
    45    39    41  ar
    46    39    42  ar
    47    43    44   1
    48    43    45  am
    49    44    50   2
    50    45    46   2
    51    45    47  am
    52    47    48  am
    53    48    49   2
    54    48    50   1
    55    50    51   1
    56    16    52   1
    57    19    53   1
    58    19    54   1
    59    22    55   1
    60    23    56   1
    61    23    57   1
    62    24    58   1
    63    26    59   1
    64    27    60   1
    65    28    61   1
    66    29    62   1
    67    32    63   1
    68    32    64   1
    69    33    65   1
    70    35    66   1
    71    36    67   1
    72    36    68   1
    73    37    69   1
    74    44    70   1
    75    47    71   1
    76    51    72   1
    77    51    73   1
    78    51    74   1
@<TRIPOS>SUBSTRUCTURE
     1  PAX     14

