@<TRIPOS>MOLECULE
1u1b_ligand_026
    74    78
SMALL
GAST_HUCK
****
This file was generated by PARSER (from files_GN.cpp)

@<TRIPOS>ATOM
      1 PA        -32.3507  -34.1846   14.6410 P.3         1 PAX       0.2972
      2 O1A       -31.7607  -33.5898   13.4677 O.co2       1 PAX      -0.6127
      3 O2A       -31.6873  -35.4594   14.7650 O.co2       1 PAX      -0.6127
      4 O5        -32.0443  -33.3295   15.9079 O.3         1 PAX      -0.2476
      5 PB        -34.6946  -35.1553   15.3980 P.3         1 PAX       0.2974
      6 O1B       -36.0641  -35.0089   14.9738 O.co2       1 PAX      -0.6127
      7 O2B       -34.4096  -36.5635   15.2581 O.co2       1 PAX      -0.6127
      8 O3A       -33.8729  -34.3459   14.3588 O.3         1 PAX      -0.1319
      9 PG        -34.4172  -28.8106   17.6424 P.3         1 PAX       0.2013
     10 O1G       -34.3752  -27.5756   16.8971 O.co2       1 PAX      -0.5537
     11 O2G       -35.0753  -29.8328   16.8689 O.co2       1 PAX      -0.5537
     12 O3G       -35.1940  -28.5716   18.8307 O.co2       1 PAX      -0.5537
     13 N9A       -28.6524  -30.5434   18.4311 N.pl3       1 PAX      -0.1919
     14 C4A       -27.9269  -31.6802   18.4153 C.ar        1 PAX       0.1613
     15 N3A       -28.2821  -32.9846   18.2782 N.ar        1 PAX      -0.2714
     16 C2A       -27.3278  -33.9524   18.2706 C.ar        1 PAX       0.0533
     17 N1A       -26.0112  -33.6207   18.4005 N.ar        1 PAX      -0.2698
     18 C6A       -25.6090  -32.3293   18.5489 C.ar        1 PAX       0.1298
     19 N6A       -24.3038  -32.0267   18.6327 N.pl3       1 PAX      -0.3152
     20 C5A       -26.5917  -31.3267   18.5763 C.ar        1 PAX       0.1045
     21 N7A       -26.5163  -30.0024   18.7435 N.2         1 PAX      -0.2958
     22 C8A       -27.7760  -29.5424   18.6614 C.2         1 PAX       0.1123
     23 C5        -32.2869  -31.9115   15.8040 C.3         1 PAX       0.1131
     24 C4        -31.9489  -31.2206   17.1468 C.3         1 PAX       0.1235
     25 O4        -30.6094  -31.5428   17.5404 O.3         1 PAX      -0.3360
     26 C1        -30.0850  -30.4445   18.2984 C.3         1 PAX       0.2013
     27 C2        -30.6215  -29.2261   17.5170 C.3         1 PAX       0.1432
     28 O2        -30.6535  -28.0098   18.2672 O.3         1 PAX      -0.3832
     29 C3        -32.0439  -29.6707   17.1099 C.3         1 PAX       0.1487
     30 O3        -32.9868  -29.2104   18.1035 O.3         1 PAX      -0.2674
     31 O5        -34.8559  -32.0734   20.7730 O.3         1 PAX      -0.2734
     32 C5        -35.3658  -32.4360   19.4728 C.3         1 PAX       0.1074
     33 C4        -35.0540  -33.9188   19.1185 C.3         1 PAX       0.1209
     34 O4        -35.6550  -34.7793   20.0908 O.3         1 PAX      -0.3391
     35 C1        -36.0588  -35.9915   19.4342 C.3         1 PAX       0.1760
     36 C2        -36.5509  -35.4823   18.0661 C.3         1 PAX       0.0362
     37 C3        -35.5629  -34.3524   17.7125 C.3         1 PAX       0.1284
     38 O3        -34.4477  -34.7569   16.8923 O.3         1 PAX      -0.2441
     39 PD        -35.8367  -32.0921   21.9861 P.3         1 PAX       0.2008
     40 O1D       -36.9937  -32.9454   21.8653 O.co2       1 PAX      -0.5537
     41 O2D       -36.2736  -30.7488   22.2854 O.co2       1 PAX      -0.5537
     42 O3D       -35.0927  -32.5486   23.1314 O.co2       1 PAX      -0.5537
     43 N1T       -36.9243  -36.7550   20.3267 N.am        1 PAX      -0.1736
     44 C6T       -38.2499  -36.9632   20.0866 C.2         1 PAX       0.0524
     45 C2T       -36.4022  -37.2973   21.4505 C.2         1 PAX       0.3265
     46 O2T       -35.2331  -37.1661   21.7811 O.2         1 PAX      -0.3843
     47 N3T       -37.1554  -38.0310   22.2665 N.am        1 PAX      -0.1859
     48 C4T       -38.4404  -38.2475   22.0151 C.2         1 PAX       0.1930
     49 O4T       -39.0396  -38.9543   22.8150 O.2         1 PAX      -0.4079
     50 C5T       -39.0436  -37.6879   20.9143 C.2         1 PAX       0.0225
     51 CM5       -40.4716  -37.8106   20.6312 C.3         1 PAX      -0.0437
     52 H1        -27.5950  -34.9287   18.1517 H           1 PAX       0.0996
     53 H2        -24.0261  -31.0968   18.6345 H           1 PAX       0.1820
     54 H3        -23.6374  -32.7292   18.5997 H           1 PAX       0.1820
     55 H4        -27.9986  -28.5536   18.7592 H           1 PAX       0.1349
     56 H5        -33.3342  -31.7053   15.5579 H           1 PAX       0.0648
     57 H6        -31.6459  -31.4763   15.0283 H           1 PAX       0.0648
     58 H7        -32.6138  -31.6249   17.9158 H           1 PAX       0.0654
     59 H8        -30.5122  -30.4593   19.3051 H           1 PAX       0.0996
     60 H9        -30.0132  -29.0731   16.6203 H           1 PAX       0.0680
     61 H10       -29.7225  -27.7388   18.3894 H           1 PAX       0.2101
     62 H11       -32.2436  -29.2806   16.1018 H           1 PAX       0.0704
     63 H12       -34.8420  -31.8073   18.7554 H           1 PAX       0.0639
     64 H13       -36.4343  -32.2254   19.3479 H           1 PAX       0.0639
     65 H14       -33.9652  -34.0575   19.1865 H           1 PAX       0.0653
     66 H15       -35.1594  -36.5968   19.2323 H           1 PAX       0.0959
     67 H16       -37.5445  -35.0380   18.1269 H           1 PAX       0.0348
     68 H17       -36.5677  -36.2922   17.3356 H           1 PAX       0.0348
     69 H18       -36.0938  -33.5319   17.2248 H           1 PAX       0.0686
     70 H19       -38.6737  -36.5700   19.2838 H           1 PAX       0.1011
     71 H20       -36.7503  -38.4262   23.0545 H           1 PAX       0.2259
     72 H21       -40.9331  -36.8197   20.6588 H           1 PAX       0.0296
     73 H22       -40.9986  -38.4451   21.3509 H           1 PAX       0.0296
     74 H23       -40.6217  -38.2384   19.6359 H           1 PAX       0.0296
@<TRIPOS>BOND
     1     1     2  ar
     2     1     3  ar
     3     1     4   1
     4     8     1   1
     5     4    23   1
     6     5     6  ar
     7     5     7  ar
     8     5     8   1
     9    38     5   1
    10     9    10  ar
    11     9    11  ar
    12     9    12  ar
    13    30     9   1
    14    13    14   1
    15    13    22   1
    16    26    13   1
    17    14    15  ar
    18    14    20  ar
    19    15    16  ar
    20    16    17  ar
    21    18    17  ar
    22    18    19   1
    23    20    18  ar
    24    21    20   1
    25    22    21   2
    26    23    24   1
    27    24    25   1
    28    24    29   1
    29    25    26   1
    30    27    26   1
    31    27    28   1
    32    29    27   1
    33    29    30   1
    34    32    31   1
    35    31    39   1
    36    33    32   1
    37    33    34   1
    38    37    33   1
    39    35    34   1
    40    36    35   1
    41    35    43   1
    42    37    36   1
    43    37    38   1
    44    39    40  ar
    45    39    41  ar
    46    39    42  ar
    47    43    44   1
    48    43    45  am
    49    44    50   2
    50    45    46   2
    51    45    47  am
    52    47    48  am
    53    48    49   2
    54    48    50   1
    55    50    51   1
    56    16    52   1
    57    19    53   1
    58    19    54   1
    59    22    55   1
    60    23    56   1
    61    23    57   1
    62    24    58   1
    63    26    59   1
    64    27    60   1
    65    28    61   1
    66    29    62   1
    67    32    63   1
    68    32    64   1
    69    33    65   1
    70    35    66   1
    71    36    67   1
    72    36    68   1
    73    37    69   1
    74    44    70   1
    75    47    71   1
    76    51    72   1
    77    51    73   1
    78    51    74   1
@<TRIPOS>SUBSTRUCTURE
     1  PAX     14

