@<TRIPOS>MOLECULE
1u1b_ligand_053
    74    78
SMALL
GAST_HUCK
****
This file was generated by PARSER (from files_GN.cpp)

@<TRIPOS>ATOM
      1 PA        -29.8390  -31.4639   18.5303 P.3         1 PAX       0.2972
      2 O1A       -30.4202  -30.3840   17.7635 O.co2       1 PAX      -0.6127
      3 O2A       -29.7987  -31.0582   19.9143 O.co2       1 PAX      -0.6127
      4 O5        -30.6654  -32.7854   18.4584 O.3         1 PAX      -0.2476
      5 PB        -27.4864  -30.8399   17.3848 P.3         1 PAX       0.2974
      6 O1B       -28.1580  -29.8950   16.5246 O.co2       1 PAX      -0.6127
      7 O2B       -26.7332  -30.1235   18.3848 O.co2       1 PAX      -0.6127
      8 O3A       -28.4408  -31.8982   18.0101 O.3         1 PAX      -0.1319
      9 PG        -33.0376  -34.4520   14.5613 P.3         1 PAX       0.2013
     10 O1G       -33.8180  -34.3854   13.3520 O.co2       1 PAX      -0.5537
     11 O2G       -32.2280  -33.2615   14.6753 O.co2       1 PAX      -0.5537
     12 O3G       -32.1596  -35.5884   14.4265 O.co2       1 PAX      -0.5537
     13 N9A       -34.8603  -35.7534   19.9908 N.pl3       1 PAX      -0.1919
     14 C4A       -34.3440  -35.5677   21.2185 C.ar        1 PAX       0.1613
     15 N3A       -33.1448  -35.0812   21.6264 N.ar        1 PAX      -0.2714
     16 C2A       -32.8677  -34.9805   22.9526 C.ar        1 PAX       0.0533
     17 N1A       -33.7933  -35.3736   23.8708 N.ar        1 PAX      -0.2698
     18 C6A       -35.0066  -35.8758   23.5136 C.ar        1 PAX       0.1298
     19 N6A       -35.8861  -36.2455   24.4564 N.pl3       1 PAX      -0.3152
     20 C5A       -35.2959  -35.9870   22.1450 C.ar        1 PAX       0.1045
     21 N7A       -36.3653  -36.4440   21.4826 N.2         1 PAX      -0.2958
     22 C8A       -36.0827  -36.3047   20.1750 C.2         1 PAX       0.1123
     23 C5        -32.0965  -32.6928   18.2909 C.3         1 PAX       0.1131
     24 C4        -32.6474  -34.0448   17.7633 C.3         1 PAX       0.1235
     25 O4        -32.9195  -34.9290   18.8607 O.3         1 PAX      -0.3360
     26 C1        -34.2536  -35.4476   18.7246 C.3         1 PAX       0.2013
     27 C2        -35.0111  -34.3663   17.9264 C.3         1 PAX       0.1432
     28 O2        -36.1933  -34.8353   17.2781 O.3         1 PAX      -0.3832
     29 C3        -33.9504  -33.9004   16.9219 C.3         1 PAX       0.1487
     30 O3        -33.9820  -34.7645   15.7604 O.3         1 PAX      -0.2674
     31 O5        -27.3179  -35.1686   16.2235 O.3         1 PAX      -0.2734
     32 C5        -26.7148  -34.8847   14.9418 C.3         1 PAX       0.1074
     33 C4        -25.9994  -33.5106   15.0297 C.3         1 PAX       0.1209
     34 O4        -25.3595  -33.2473   13.7729 O.3         1 PAX      -0.3391
     35 C1        -25.5988  -31.8805   13.4096 C.3         1 PAX       0.1760
     36 C2        -26.9385  -31.4953   14.0580 C.3         1 PAX       0.0362
     37 C3        -26.9606  -32.3283   15.3490 C.3         1 PAX       0.1284
     38 O3        -26.4549  -31.6078   16.5052 O.3         1 PAX      -0.2441
     39 PD        -28.8645  -35.2870   16.3259 P.3         1 PAX       0.2008
     40 O1D       -29.3378  -36.6546   16.3344 O.co2       1 PAX      -0.5537
     41 O2D       -29.5709  -34.5211   15.3280 O.co2       1 PAX      -0.5537
     42 O3D       -29.2238  -34.6864   17.5828 O.co2       1 PAX      -0.5537
     43 N1T       -25.6038  -31.6759   11.9685 N.am        1 PAX      -0.1736
     44 C6T       -25.0843  -30.5208   11.4472 C.2         1 PAX       0.0524
     45 C2T       -26.1578  -32.5668   11.1182 C.2         1 PAX       0.3265
     46 O2T       -26.6920  -33.6071   11.4736 O.2         1 PAX      -0.3843
     47 N3T       -26.1501  -32.3360    9.8090 N.am        1 PAX      -0.1859
     48 C4T       -25.6257  -31.2272    9.2972 C.2         1 PAX       0.1930
     49 O4T       -25.6535  -31.1112    8.0824 O.2         1 PAX      -0.4079
     50 C5T       -25.0897  -30.2627   10.1195 C.2         1 PAX       0.0225
     51 CM5       -24.5790  -29.0085    9.5724 C.3         1 PAX      -0.0437
     52 H1        -31.9690  -34.6100   23.2596 H           1 PAX       0.0996
     53 H2        -36.7539  -36.5973   24.2014 H           1 PAX       0.1820
     54 H3        -35.6608  -36.1536   25.3958 H           1 PAX       0.1820
     55 H4        -36.7237  -36.5850   19.4325 H           1 PAX       0.1349
     56 H5        -32.3496  -31.9188   17.5581 H           1 PAX       0.0648
     57 H6        -32.5736  -32.4338   19.2391 H           1 PAX       0.0648
     58 H7        -31.8665  -34.5078   17.1565 H           1 PAX       0.0654
     59 H8        -34.1965  -36.3702   18.1361 H           1 PAX       0.0996
     60 H9        -35.2792  -33.5353   18.5879 H           1 PAX       0.0680
     61 H10       -36.8958  -34.8069   17.9589 H           1 PAX       0.2101
     62 H11       -34.1766  -32.8680   16.6294 H           1 PAX       0.0704
     63 H12       -27.4219  -34.8560   14.1019 H           1 PAX       0.0639
     64 H13       -25.9721  -35.6614   14.7371 H           1 PAX       0.0639
     65 H14       -25.2133  -33.5770   15.7902 H           1 PAX       0.0653
     66 H15       -24.8043  -31.2959   13.8914 H           1 PAX       0.0959
     67 H16       -27.7744  -31.7861   13.4160 H           1 PAX       0.0348
     68 H17       -26.9974  -30.4205   14.2414 H           1 PAX       0.0348
     69 H18       -27.9811  -32.6961   15.4986 H           1 PAX       0.0686
     70 H19       -24.7122  -29.8347   12.0658 H           1 PAX       0.1011
     71 H20       -26.5379  -32.9951    9.2116 H           1 PAX       0.2259
     72 H21       -24.2028  -28.3294   10.3409 H           1 PAX       0.0296
     73 H22       -25.3747  -28.4922    9.0324 H           1 PAX       0.0296
     74 H23       -23.7631  -29.2160    8.8783 H           1 PAX       0.0296
@<TRIPOS>BOND
     1     1     2  ar
     2     1     3  ar
     3     1     4   1
     4     8     1   1
     5     4    23   1
     6     5     6  ar
     7     5     7  ar
     8     5     8   1
     9    38     5   1
    10     9    10  ar
    11     9    11  ar
    12     9    12  ar
    13    30     9   1
    14    13    14   1
    15    13    22   1
    16    26    13   1
    17    14    15  ar
    18    14    20  ar
    19    15    16  ar
    20    16    17  ar
    21    18    17  ar
    22    18    19   1
    23    20    18  ar
    24    21    20   1
    25    22    21   2
    26    23    24   1
    27    24    25   1
    28    24    29   1
    29    25    26   1
    30    27    26   1
    31    27    28   1
    32    29    27   1
    33    29    30   1
    34    32    31   1
    35    31    39   1
    36    33    32   1
    37    33    34   1
    38    37    33   1
    39    35    34   1
    40    36    35   1
    41    35    43   1
    42    37    36   1
    43    37    38   1
    44    39    40  ar
    45    39    41  ar
    46    39    42  ar
    47    43    44   1
    48    43    45  am
    49    44    50   2
    50    45    46   2
    51    45    47  am
    52    47    48  am
    53    48    49   2
    54    48    50   1
    55    50    51   1
    56    16    52   1
    57    19    53   1
    58    19    54   1
    59    22    55   1
    60    23    56   1
    61    23    57   1
    62    24    58   1
    63    26    59   1
    64    27    60   1
    65    28    61   1
    66    29    62   1
    67    32    63   1
    68    32    64   1
    69    33    65   1
    70    35    66   1
    71    36    67   1
    72    36    68   1
    73    37    69   1
    74    44    70   1
    75    47    71   1
    76    51    72   1
    77    51    73   1
    78    51    74   1
@<TRIPOS>SUBSTRUCTURE
     1  PAX     14

