@<TRIPOS>MOLECULE
1u1b_ligand_019
    74    78
SMALL
GAST_HUCK
****
This file was generated by PARSER (from files_GN.cpp)

@<TRIPOS>ATOM
      1 PA        -27.3192  -36.8337   15.5202 P.3         1 PAX       0.2972
      2 O1A       -26.1812  -36.0197   15.1658 O.co2       1 PAX      -0.6127
      3 O2A       -26.7961  -37.9418   16.2794 O.co2       1 PAX      -0.6127
      4 O5        -28.3045  -36.1165   16.4917 O.3         1 PAX      -0.2476
      5 PB        -27.3125  -37.7881   13.0501 P.3         1 PAX       0.2974
      6 O1B       -28.0461  -38.8092   12.3441 O.co2       1 PAX      -0.6127
      7 O2B       -27.3751  -36.5980   12.2420 O.co2       1 PAX      -0.6127
      8 O3A       -28.1210  -37.4846   14.3530 O.3         1 PAX      -0.1319
      9 PG        -28.3256  -30.4790   19.0921 P.3         1 PAX       0.2013
     10 O1G       -29.0215  -29.7789   18.0394 O.co2       1 PAX      -0.5537
     11 O2G       -29.2233  -30.5185   20.2211 O.co2       1 PAX      -0.5537
     12 O3G       -27.1684  -29.7131   19.4947 O.co2       1 PAX      -0.5537
     13 N9A       -24.1810  -33.2054   16.5652 N.pl3       1 PAX      -0.1919
     14 C4A       -23.1976  -34.0253   16.9705 C.ar        1 PAX       0.1613
     15 N3A       -23.1000  -34.8495   18.0454 N.ar        1 PAX      -0.2714
     16 C2A       -21.9600  -35.5637   18.2447 C.ar        1 PAX       0.0533
     17 N1A       -20.9179  -35.4529   17.3748 N.ar        1 PAX      -0.2698
     18 C6A       -20.9728  -34.6379   16.2860 C.ar        1 PAX       0.1298
     19 N6A       -19.9106  -34.5440   15.4707 N.pl3       1 PAX      -0.3152
     20 C5A       -22.1455  -33.8988   16.0650 C.ar        1 PAX       0.1045
     21 N7A       -22.4970  -33.0170   15.1212 N.2         1 PAX      -0.2958
     22 C8A       -23.7366  -32.6028   15.4384 C.2         1 PAX       0.1123
     23 C5        -28.4750  -34.6859   16.3930 C.3         1 PAX       0.1131
     24 C4        -27.5776  -33.9355   17.4175 C.3         1 PAX       0.1235
     25 O4        -26.2015  -34.2391   17.1545 O.3         1 PAX      -0.3360
     26 C1        -25.4269  -33.0413   17.2666 C.3         1 PAX       0.2013
     27 C2        -26.3900  -31.9403   16.7788 C.3         1 PAX       0.1432
     28 O2        -25.9517  -30.6412   17.1748 O.3         1 PAX      -0.3832
     29 C3        -27.7292  -32.3823   17.4058 C.3         1 PAX       0.1487
     30 O3        -27.9250  -31.9476   18.7769 O.3         1 PAX      -0.2674
     31 O5        -22.1598  -41.1124   11.9496 O.3         1 PAX      -0.2734
     32 C5        -23.5632  -40.7679   11.8486 C.3         1 PAX       0.1074
     33 C4        -23.8132  -39.4839   12.6854 C.3         1 PAX       0.1209
     34 O4        -22.6196  -38.6800   12.5990 O.3         1 PAX      -0.3391
     35 C1        -22.9678  -37.2964   12.4460 C.3         1 PAX       0.1760
     36 C2        -24.2441  -37.4015   11.5900 C.3         1 PAX       0.0362
     37 C3        -24.9993  -38.6091   12.1913 C.3         1 PAX       0.1284
     38 O3        -25.8428  -38.2681   13.3173 O.3         1 PAX      -0.2441
     39 PD        -21.3245  -41.2052   10.6453 P.3         1 PAX       0.2008
     40 O1D       -21.4913  -42.4975   10.0245 O.co2       1 PAX      -0.5537
     41 O2D       -19.9317  -41.0544   10.9975 O.co2       1 PAX      -0.5537
     42 O3D       -21.6455  -40.1514    9.7094 O.co2       1 PAX      -0.5537
     43 N1T       -21.7866  -36.5660   11.9977 N.am        1 PAX      -0.1736
     44 C6T       -20.6836  -36.6061   12.8118 C.2         1 PAX       0.0524
     45 C2T       -21.6771  -35.8687   10.8442 C.2         1 PAX       0.3265
     46 O2T       -22.5942  -35.7022   10.0521 O.2         1 PAX      -0.3843
     47 N3T       -20.5193  -35.3096   10.4979 N.am        1 PAX      -0.1859
     48 C4T       -19.4397  -35.4102   11.2607 C.2         1 PAX       0.1930
     49 O4T       -18.4176  -34.8702   10.8538 O.2         1 PAX      -0.4079
     50 C5T       -19.4920  -36.0697   12.4653 C.2         1 PAX       0.0225
     51 CM5       -18.3095  -36.1871   13.3047 C.3         1 PAX      -0.0437
     52 H1        -21.8805  -36.1759   19.0543 H           1 PAX       0.0996
     53 H2        -19.9371  -33.9577   14.7010 H           1 PAX       0.1820
     54 H3        -19.1120  -35.0626   15.6577 H           1 PAX       0.1820
     55 H4        -24.2525  -31.9110   14.8883 H           1 PAX       0.1349
     56 H5        -29.5178  -34.4788   16.6474 H           1 PAX       0.0648
     57 H6        -28.3052  -34.2892   15.3868 H           1 PAX       0.0648
     58 H7        -27.8099  -34.3344   18.4127 H           1 PAX       0.0654
     59 H8        -25.2028  -32.8647   18.3280 H           1 PAX       0.0996
     60 H9        -26.4793  -31.9642   15.6874 H           1 PAX       0.0680
     61 H10       -24.9951  -30.6030   16.9734 H           1 PAX       0.2101
     62 H11       -28.5724  -32.0751   16.7753 H           1 PAX       0.0704
     63 H12       -24.1549  -41.5918   12.2556 H           1 PAX       0.0639
     64 H13       -23.9055  -40.5897   10.8242 H           1 PAX       0.0639
     65 H14       -23.9493  -39.7637   13.7343 H           1 PAX       0.0653
     66 H15       -23.2476  -36.9081   13.4328 H           1 PAX       0.0959
     67 H16       -23.9859  -37.6396   10.5538 H           1 PAX       0.0348
     68 H17       -24.8146  -36.4718   11.6097 H           1 PAX       0.0348
     69 H18       -25.5765  -39.1392   11.4218 H           1 PAX       0.0686
     70 H19       -20.7455  -37.0760   13.6927 H           1 PAX       0.1011
     71 H20       -20.4587  -34.8183    9.6637 H           1 PAX       0.2259
     72 H21       -18.5161  -36.6913   14.2527 H           1 PAX       0.0296
     73 H22       -17.9143  -35.1988   13.5342 H           1 PAX       0.0296
     74 H23       -17.5419  -36.7607   12.7810 H           1 PAX       0.0296
@<TRIPOS>BOND
     1     1     2  ar
     2     1     3  ar
     3     1     4   1
     4     8     1   1
     5     4    23   1
     6     5     6  ar
     7     5     7  ar
     8     5     8   1
     9    38     5   1
    10     9    10  ar
    11     9    11  ar
    12     9    12  ar
    13    30     9   1
    14    13    14   1
    15    13    22   1
    16    26    13   1
    17    14    15  ar
    18    14    20  ar
    19    15    16  ar
    20    16    17  ar
    21    18    17  ar
    22    18    19   1
    23    20    18  ar
    24    21    20   1
    25    22    21   2
    26    23    24   1
    27    24    25   1
    28    24    29   1
    29    25    26   1
    30    27    26   1
    31    27    28   1
    32    29    27   1
    33    29    30   1
    34    32    31   1
    35    31    39   1
    36    33    32   1
    37    33    34   1
    38    37    33   1
    39    35    34   1
    40    36    35   1
    41    35    43   1
    42    37    36   1
    43    37    38   1
    44    39    40  ar
    45    39    41  ar
    46    39    42  ar
    47    43    44   1
    48    43    45  am
    49    44    50   2
    50    45    46   2
    51    45    47  am
    52    47    48  am
    53    48    49   2
    54    48    50   1
    55    50    51   1
    56    16    52   1
    57    19    53   1
    58    19    54   1
    59    22    55   1
    60    23    56   1
    61    23    57   1
    62    24    58   1
    63    26    59   1
    64    27    60   1
    65    28    61   1
    66    29    62   1
    67    32    63   1
    68    32    64   1
    69    33    65   1
    70    35    66   1
    71    36    67   1
    72    36    68   1
    73    37    69   1
    74    44    70   1
    75    47    71   1
    76    51    72   1
    77    51    73   1
    78    51    74   1
@<TRIPOS>SUBSTRUCTURE
     1  PAX     14

