@<TRIPOS>MOLECULE
1u1b_ligand_037
    74    78
SMALL
GAST_HUCK
****
This file was generated by PARSER (from files_GN.cpp)

@<TRIPOS>ATOM
      1 PA        -25.0667  -37.4362   12.7179 P.3         1 PAX       0.2972
      2 O1A       -25.3431  -38.1166   11.4808 O.co2       1 PAX      -0.6127
      3 O2A       -24.0749  -38.2741   13.3448 O.co2       1 PAX      -0.6127
      4 O5        -24.3436  -36.0640   12.5454 O.3         1 PAX      -0.2476
      5 PB        -27.6882  -37.0833   13.2611 P.3         1 PAX       0.2974
      6 O1B       -27.9627  -37.3971   11.8847 O.co2       1 PAX      -0.6127
      7 O2B       -28.5604  -38.0029   13.9406 O.co2       1 PAX      -0.6127
      8 O3A       -26.2448  -37.4448   13.7468 O.3         1 PAX      -0.1319
      9 PG        -18.4543  -35.8801   11.7711 P.3         1 PAX       0.2013
     10 O1G       -18.2721  -37.0263   12.6282 O.co2       1 PAX      -0.5537
     11 O2G       -18.4038  -36.3093   10.3930 O.co2       1 PAX      -0.5537
     12 O3G       -17.3444  -34.9802   11.9847 O.co2       1 PAX      -0.5537
     13 N9A       -22.9010  -34.4135   15.0965 N.pl3       1 PAX      -0.1919
     14 C4A       -22.7001  -34.6644   16.4048 C.ar        1 PAX       0.1613
     15 N3A       -21.6109  -35.0890   17.0957 N.ar        1 PAX      -0.2714
     16 C2A       -21.6818  -35.2943   18.4413 C.ar        1 PAX       0.0533
     17 N1A       -22.8474  -35.0485   19.1032 N.ar        1 PAX      -0.2698
     18 C6A       -23.9650  -34.6117   18.4676 C.ar        1 PAX       0.1298
     19 N6A       -25.1014  -34.4003   19.1522 N.pl3       1 PAX      -0.3152
     20 C5A       -23.8942  -34.4233   17.0768 C.ar        1 PAX       0.1045
     21 N7A       -24.8028  -34.0322   16.1850 N.2         1 PAX      -0.2958
     22 C8A       -24.1958  -34.0426   14.9866 C.2         1 PAX       0.1123
     23 C5        -23.4497  -35.8970   11.4145 C.3         1 PAX       0.1131
     24 C4        -22.1904  -35.0386   11.7578 C.3         1 PAX       0.1235
     25 O4        -22.4832  -34.0535   12.7605 O.3         1 PAX      -0.3360
     26 C1        -21.9341  -34.4671   14.0302 C.3         1 PAX       0.2013
     27 C2        -21.2972  -35.8579   13.8023 C.3         1 PAX       0.1432
     28 O2        -20.1321  -36.0864   14.5929 O.3         1 PAX      -0.3832
     29 C3        -20.9824  -35.8384   12.2993 C.3         1 PAX       0.1487
     30 O3        -19.7665  -35.0890   12.0399 O.3         1 PAX      -0.2674
     31 O5        -31.9194  -35.2925   14.4365 O.3         1 PAX      -0.2734
     32 C5        -31.2837  -34.0422   14.7868 C.3         1 PAX       0.1074
     33 C4        -29.8222  -33.9958   14.2641 C.3         1 PAX       0.1209
     34 O4        -29.2181  -32.8066   14.8032 O.3         1 PAX      -0.3391
     35 C1        -27.9459  -33.1362   15.3681 C.3         1 PAX       0.1760
     36 C2        -28.0346  -34.6364   15.7384 C.3         1 PAX       0.0362
     37 C3        -28.9285  -35.2125   14.6362 C.3         1 PAX       0.1284
     38 O3        -28.1575  -35.6018   13.4674 O.3         1 PAX      -0.2441
     39 PD        -33.4523  -35.3028   14.2333 P.3         1 PAX       0.2008
     40 O1D       -34.1951  -34.3529   15.0309 O.co2       1 PAX      -0.5537
     41 O2D       -33.9290  -36.6283   14.5636 O.co2       1 PAX      -0.5537
     42 O3D       -33.7325  -35.0897   12.8286 O.co2       1 PAX      -0.5537
     43 N1T       -27.6309  -32.2323   16.4697 N.am        1 PAX      -0.1736
     44 C6T       -28.4587  -32.1795   17.5576 C.2         1 PAX       0.0524
     45 C2T       -26.5642  -31.4037   16.4469 C.2         1 PAX       0.3265
     46 O2T       -25.8187  -31.2804   15.4888 O.2         1 PAX      -0.3843
     47 N3T       -26.2799  -30.6466   17.5055 N.am        1 PAX      -0.1859
     48 C4T       -27.0585  -30.6351   18.5812 C.2         1 PAX       0.1930
     49 O4T       -26.7090  -29.9221   19.5145 O.2         1 PAX      -0.4079
     50 C5T       -28.2027  -31.3896   18.6299 C.2         1 PAX       0.0225
     51 CM5       -29.1160  -31.3121   19.7641 C.3         1 PAX      -0.0437
     52 H1        -20.8724  -35.6420   18.9562 H           1 PAX       0.0996
     53 H2        -25.8963  -34.0892   18.6911 H           1 PAX       0.1820
     54 H3        -25.1446  -34.5876   20.1022 H           1 PAX       0.1820
     55 H4        -24.6658  -33.7815   14.1189 H           1 PAX       0.1349
     56 H5        -24.0240  -35.3825   10.6421 H           1 PAX       0.0648
     57 H6        -23.1104  -36.8425   10.9777 H           1 PAX       0.0648
     58 H7        -21.8845  -34.5183   10.8446 H           1 PAX       0.0654
     59 H8        -21.1421  -33.7513   14.2638 H           1 PAX       0.0996
     60 H9        -22.0214  -36.6499   14.0083 H           1 PAX       0.0680
     61 H10       -20.4383  -36.0950   15.5171 H           1 PAX       0.2101
     62 H11       -20.9609  -36.8529   11.8823 H           1 PAX       0.0704
     63 H12       -31.2877  -33.9526   15.8773 H           1 PAX       0.0639
     64 H13       -31.8002  -33.1669   14.3711 H           1 PAX       0.0639
     65 H14       -29.8719  -33.8877   13.1771 H           1 PAX       0.0653
     66 H15       -27.2188  -33.0503   14.5540 H           1 PAX       0.0959
     67 H16       -28.5108  -34.7883   16.7099 H           1 PAX       0.0348
     68 H17       -27.0669  -35.1347   15.7498 H           1 PAX       0.0348
     69 H18       -29.5392  -36.0279   15.0329 H           1 PAX       0.0686
     70 H19       -29.2921  -32.7212   17.5609 H           1 PAX       0.1011
     71 H20       -25.4855  -30.0899   17.4878 H           1 PAX       0.2259
     72 H21       -29.9878  -31.9585   19.6510 H           1 PAX       0.0296
     73 H22       -29.4717  -30.2866   19.8725 H           1 PAX       0.0296
     74 H23       -28.5981  -31.6043   20.6788 H           1 PAX       0.0296
@<TRIPOS>BOND
     1     1     2  ar
     2     1     3  ar
     3     1     4   1
     4     8     1   1
     5     4    23   1
     6     5     6  ar
     7     5     7  ar
     8     5     8   1
     9    38     5   1
    10     9    10  ar
    11     9    11  ar
    12     9    12  ar
    13    30     9   1
    14    13    14   1
    15    13    22   1
    16    26    13   1
    17    14    15  ar
    18    14    20  ar
    19    15    16  ar
    20    16    17  ar
    21    18    17  ar
    22    18    19   1
    23    20    18  ar
    24    21    20   1
    25    22    21   2
    26    23    24   1
    27    24    25   1
    28    24    29   1
    29    25    26   1
    30    27    26   1
    31    27    28   1
    32    29    27   1
    33    29    30   1
    34    32    31   1
    35    31    39   1
    36    33    32   1
    37    33    34   1
    38    37    33   1
    39    35    34   1
    40    36    35   1
    41    35    43   1
    42    37    36   1
    43    37    38   1
    44    39    40  ar
    45    39    41  ar
    46    39    42  ar
    47    43    44   1
    48    43    45  am
    49    44    50   2
    50    45    46   2
    51    45    47  am
    52    47    48  am
    53    48    49   2
    54    48    50   1
    55    50    51   1
    56    16    52   1
    57    19    53   1
    58    19    54   1
    59    22    55   1
    60    23    56   1
    61    23    57   1
    62    24    58   1
    63    26    59   1
    64    27    60   1
    65    28    61   1
    66    29    62   1
    67    32    63   1
    68    32    64   1
    69    33    65   1
    70    35    66   1
    71    36    67   1
    72    36    68   1
    73    37    69   1
    74    44    70   1
    75    47    71   1
    76    51    72   1
    77    51    73   1
    78    51    74   1
@<TRIPOS>SUBSTRUCTURE
     1  PAX     14

