@<TRIPOS>MOLECULE
1u1b_ligand_052
    74    78
SMALL
GAST_HUCK
****
This file was generated by PARSER (from files_GN.cpp)

@<TRIPOS>ATOM
      1 PA        -22.8502  -34.2563   18.3408 P.3         1 PAX       0.2972
      2 O1A       -23.1965  -34.2019   19.7413 O.co2       1 PAX      -0.6127
      3 O2A       -22.2224  -35.5527   18.1920 O.co2       1 PAX      -0.6127
      4 O5        -24.1578  -34.1761   17.4990 O.3         1 PAX      -0.2476
      5 PB        -20.9954  -33.0926   16.8405 P.3         1 PAX       0.2974
      6 O1B       -21.7592  -33.1134   15.6156 O.co2       1 PAX      -0.6127
      7 O2B       -20.2512  -31.8540   16.8447 O.co2       1 PAX      -0.6127
      8 O3A       -21.9027  -33.0414   18.1045 O.3         1 PAX      -0.1319
      9 PG        -28.9304  -35.8675   16.0568 P.3         1 PAX       0.2013
     10 O1G       -30.2273  -36.2505   16.5683 O.co2       1 PAX      -0.5537
     11 O2G       -29.1632  -35.1315   14.8389 O.co2       1 PAX      -0.5537
     12 O3G       -28.2378  -37.1055   15.7548 O.co2       1 PAX      -0.5537
     13 N9A       -28.6957  -30.9002   18.4606 N.pl3       1 PAX      -0.1919
     14 C4A       -29.8199  -30.2551   18.1058 C.ar        1 PAX       0.1613
     15 N3A       -30.9173  -30.6627   17.4117 N.ar        1 PAX      -0.2714
     16 C2A       -31.9448  -29.7961   17.1923 C.ar        1 PAX       0.0533
     17 N1A       -31.8837  -28.5296   17.6823 N.ar        1 PAX      -0.2698
     18 C6A       -30.8136  -28.0776   18.3898 C.ar        1 PAX       0.1298
     19 N6A       -30.8043  -26.8254   18.8763 N.pl3       1 PAX      -0.3152
     20 C5A       -29.7413  -28.9610   18.6057 C.ar        1 PAX       0.1045
     21 N7A       -28.5756  -28.8228   19.2489 N.2         1 PAX      -0.2958
     22 C8A       -27.9517  -30.0102   19.1540 C.2         1 PAX       0.1123
     23 C5        -25.0806  -33.0910   17.7926 C.3         1 PAX       0.1131
     24 C4        -26.4923  -33.6638   18.1136 C.3         1 PAX       0.1235
     25 O4        -27.2125  -32.7148   18.9141 O.3         1 PAX      -0.3360
     26 C1        -28.3936  -32.2844   18.2187 C.3         1 PAX       0.2013
     27 C2        -28.1490  -32.6489   16.7389 C.3         1 PAX       0.1432
     28 O2        -29.3473  -32.7617   15.9739 O.3         1 PAX      -0.3832
     29 C3        -27.3640  -33.9719   16.8690 C.3         1 PAX       0.1487
     30 O3        -28.2453  -35.0720   17.2034 O.3         1 PAX      -0.2674
     31 O5        -16.1401  -33.3289   15.3376 O.3         1 PAX      -0.2734
     32 C5        -17.3700  -33.3466   14.5772 C.3         1 PAX       0.1074
     33 C4        -18.3749  -34.4060   15.1091 C.3         1 PAX       0.1209
     34 O4        -17.8779  -35.7354   14.8887 O.3         1 PAX      -0.3391
     35 C1        -18.1063  -36.5371   16.0636 C.3         1 PAX       0.1760
     36 C2        -17.9748  -35.4955   17.2001 C.3         1 PAX       0.0362
     37 C3        -18.6816  -34.2582   16.6241 C.3         1 PAX       0.1284
     38 O3        -20.0799  -34.3577   16.9553 O.3         1 PAX      -0.2441
     39 PD        -14.8716  -34.0173   14.7470 P.3         1 PAX       0.2008
     40 O1D       -13.9011  -34.1911   15.8024 O.co2       1 PAX      -0.5537
     41 O2D       -14.2667  -33.1521   13.7626 O.co2       1 PAX      -0.5537
     42 O3D       -15.0933  -35.3043   14.1353 O.co2       1 PAX      -0.5537
     43 N1T       -17.2247  -37.6914   16.2108 N.am        1 PAX      -0.1736
     44 C6T       -16.2267  -37.9426   15.3100 C.2         1 PAX       0.0524
     45 C2T       -17.3894  -38.5669   17.2259 C.2         1 PAX       0.3265
     46 O2T       -18.3087  -38.5057   18.0301 O.2         1 PAX      -0.3843
     47 N3T       -16.5248  -39.5596   17.4050 N.am        1 PAX      -0.1859
     48 C4T       -15.4920  -39.7471   16.5850 C.2         1 PAX       0.1930
     49 O4T       -14.7360  -40.6649   16.8549 O.2         1 PAX      -0.4079
     50 C5T       -15.3232  -38.9399   15.4798 C.2         1 PAX       0.0225
     51 CM5       -14.2693  -39.1281   14.4885 C.3         1 PAX      -0.0437
     52 H1        -32.7623  -30.1017   16.6654 H           1 PAX       0.0996
     53 H2        -30.0571  -26.5127   19.4085 H           1 PAX       0.1820
     54 H3        -31.5618  -26.2406   18.7155 H           1 PAX       0.1820
     55 H4        -27.0401  -30.1979   19.5731 H           1 PAX       0.1349
     56 H5        -25.1275  -32.4497   16.9102 H           1 PAX       0.0648
     57 H6        -24.7683  -32.4385   18.6239 H           1 PAX       0.0648
     58 H7        -26.3534  -34.5660   18.7188 H           1 PAX       0.0654
     59 H8        -29.2230  -32.8856   18.6050 H           1 PAX       0.0996
     60 H9        -27.5161  -31.8932   16.2652 H           1 PAX       0.0680
     61 H10       -29.6961  -31.8479   15.9125 H           1 PAX       0.2101
     62 H11       -26.7374  -34.1700   15.9906 H           1 PAX       0.0704
     63 H12       -17.2193  -33.4740   13.4985 H           1 PAX       0.0639
     64 H13       -17.8277  -32.3641   14.7070 H           1 PAX       0.0639
     65 H14       -19.2906  -34.3158   14.5254 H           1 PAX       0.0653
     66 H15       -19.1424  -36.9025   16.0260 H           1 PAX       0.0959
     67 H16       -16.9169  -35.2840   17.3925 H           1 PAX       0.0348
     68 H17       -18.4452  -35.8331   18.1305 H           1 PAX       0.0348
     69 H18       -18.2385  -33.3688   17.0798 H           1 PAX       0.0686
     70 H19       -16.1669  -37.3986   14.4822 H           1 PAX       0.1011
     71 H20       -16.6462  -40.1642   18.1537 H           1 PAX       0.2259
     72 H21       -14.7102  -39.3202   13.5064 H           1 PAX       0.0296
     73 H22       -13.6076  -39.9626   14.7240 H           1 PAX       0.0296
     74 H23       -13.6564  -38.2251   14.4242 H           1 PAX       0.0296
@<TRIPOS>BOND
     1     1     2  ar
     2     1     3  ar
     3     1     4   1
     4     8     1   1
     5     4    23   1
     6     5     6  ar
     7     5     7  ar
     8     5     8   1
     9    38     5   1
    10     9    10  ar
    11     9    11  ar
    12     9    12  ar
    13    30     9   1
    14    13    14   1
    15    13    22   1
    16    26    13   1
    17    14    15  ar
    18    14    20  ar
    19    15    16  ar
    20    16    17  ar
    21    18    17  ar
    22    18    19   1
    23    20    18  ar
    24    21    20   1
    25    22    21   2
    26    23    24   1
    27    24    25   1
    28    24    29   1
    29    25    26   1
    30    27    26   1
    31    27    28   1
    32    29    27   1
    33    29    30   1
    34    32    31   1
    35    31    39   1
    36    33    32   1
    37    33    34   1
    38    37    33   1
    39    35    34   1
    40    36    35   1
    41    35    43   1
    42    37    36   1
    43    37    38   1
    44    39    40  ar
    45    39    41  ar
    46    39    42  ar
    47    43    44   1
    48    43    45  am
    49    44    50   2
    50    45    46   2
    51    45    47  am
    52    47    48  am
    53    48    49   2
    54    48    50   1
    55    50    51   1
    56    16    52   1
    57    19    53   1
    58    19    54   1
    59    22    55   1
    60    23    56   1
    61    23    57   1
    62    24    58   1
    63    26    59   1
    64    27    60   1
    65    28    61   1
    66    29    62   1
    67    32    63   1
    68    32    64   1
    69    33    65   1
    70    35    66   1
    71    36    67   1
    72    36    68   1
    73    37    69   1
    74    44    70   1
    75    47    71   1
    76    51    72   1
    77    51    73   1
    78    51    74   1
@<TRIPOS>SUBSTRUCTURE
     1  PAX     14

