@<TRIPOS>MOLECULE
1u1b_ligand_029
    74    78
SMALL
GAST_HUCK
****
This file was generated by PARSER (from files_GN.cpp)

@<TRIPOS>ATOM
      1 PA        -31.1148  -35.0155   12.9726 P.3         1 PAX       0.2972
      2 O1A       -30.5133  -34.4890   11.7761 O.co2       1 PAX      -0.6127
      3 O2A       -30.7052  -36.3952   12.9781 O.co2       1 PAX      -0.6127
      4 O5        -30.6096  -34.0685   14.1134 O.3         1 PAX      -0.2476
      5 PB        -33.5619  -35.2206   13.9254 P.3         1 PAX       0.2974
      6 O1B       -34.8963  -34.9127   13.4720 O.co2       1 PAX      -0.6127
      7 O2B       -33.5293  -36.6307   14.2367 O.co2       1 PAX      -0.6127
      8 O3A       -32.6422  -34.8680   12.7213 O.3         1 PAX      -0.1319
      9 PG        -26.8837  -37.2498   14.5227 P.3         1 PAX       0.2013
     10 O1G       -26.2746  -38.2700   15.3352 O.co2       1 PAX      -0.5537
     11 O2G       -28.2838  -37.5735   14.3801 O.co2       1 PAX      -0.5537
     12 O3G       -26.2585  -37.3226   13.2299 O.co2       1 PAX      -0.5537
     13 N9A       -26.9734  -31.9129   17.4754 N.pl3       1 PAX      -0.1919
     14 C4A       -27.9857  -31.4961   18.2519 C.ar        1 PAX       0.1613
     15 N3A       -29.2890  -31.8725   18.2913 N.ar        1 PAX      -0.2714
     16 C2A       -30.1269  -31.3086   19.1991 C.ar        1 PAX       0.0533
     17 N1A       -29.6539  -30.3702   20.0686 N.ar        1 PAX      -0.2698
     18 C6A       -28.3551  -29.9564   20.0658 C.ar        1 PAX       0.1298
     19 N6A       -27.9446  -29.0418   20.9594 N.pl3       1 PAX      -0.3152
     20 C5A       -27.4807  -30.5419   19.1327 C.ar        1 PAX       0.1045
     21 N7A       -26.1705  -30.3930   18.8878 N.2         1 PAX      -0.2958
     22 C8A       -25.8767  -31.2427   17.8851 C.2         1 PAX       0.1123
     23 C5        -29.9552  -34.6493   15.2606 C.3         1 PAX       0.1131
     24 C4        -28.4509  -34.2787   15.2441 C.3         1 PAX       0.1235
     25 O4        -28.2993  -32.9691   15.8122 O.3         1 PAX      -0.3360
     26 C1        -27.0278  -32.9322   16.4639 C.3         1 PAX       0.2013
     27 C2        -26.8402  -34.3403   17.0575 C.3         1 PAX       0.1432
     28 O2        -25.4605  -34.6401   17.2717 O.3         1 PAX      -0.3832
     29 C3        -27.5335  -35.2592   16.0354 C.3         1 PAX       0.1487
     30 O3        -26.5605  -35.8616   15.1538 O.3         1 PAX      -0.2674
     31 O5        -34.1948  -30.8385   16.7250 O.3         1 PAX      -0.2734
     32 C5        -34.2389  -31.9128   17.6962 C.3         1 PAX       0.1074
     33 C4        -33.4807  -33.2089   17.2966 C.3         1 PAX       0.1209
     34 O4        -33.3812  -34.0126   18.4836 O.3         1 PAX      -0.3391
     35 C1        -33.8186  -35.3396   18.1884 C.3         1 PAX       0.1760
     36 C2        -34.7607  -35.2370   16.9709 C.3         1 PAX       0.0362
     37 C3        -34.1698  -34.0517   16.1737 C.3         1 PAX       0.1284
     38 O3        -33.1707  -34.3922   15.1879 O.3         1 PAX      -0.2441
     39 PD        -32.9084  -29.9605   16.6284 P.3         1 PAX       0.2008
     40 O1D       -31.7963  -30.6249   15.9894 O.co2       1 PAX      -0.5537
     41 O2D       -32.4993  -29.4428   17.9140 O.co2       1 PAX      -0.5537
     42 O3D       -33.2101  -28.8005   15.8274 O.co2       1 PAX      -0.5537
     43 N1T       -34.4108  -35.9527   19.3687 N.am        1 PAX      -0.1736
     44 C6T       -33.8835  -37.1076   19.8809 C.2         1 PAX       0.0524
     45 C2T       -35.4530  -35.3843   20.0140 C.2         1 PAX       0.3265
     46 O2T       -35.9605  -34.3196   19.6880 O.2         1 PAX      -0.3843
     47 N3T       -36.0001  -35.9943   21.0605 N.am        1 PAX      -0.1859
     48 C4T       -35.5163  -37.1356   21.5355 C.2         1 PAX       0.1930
     49 O4T       -36.1028  -37.6317   22.4892 O.2         1 PAX      -0.4079
     50 C5T       -34.4027  -37.7154   20.9755 C.2         1 PAX       0.0225
     51 CM5       -33.7840  -38.8893   21.5819 C.3         1 PAX      -0.0437
     52 H1        -31.1022  -31.5980   19.2387 H           1 PAX       0.0996
     53 H2        -27.0163  -28.7570   21.0020 H           1 PAX       0.1820
     54 H3        -28.5826  -28.6749   21.5942 H           1 PAX       0.1820
     55 H4        -24.9371  -31.3759   17.4965 H           1 PAX       0.1349
     56 H5        -30.0852  -35.7324   15.3409 H           1 PAX       0.0648
     57 H6        -30.4133  -34.2223   16.1552 H           1 PAX       0.0648
     58 H7        -28.1093  -34.2162   14.2089 H           1 PAX       0.0654
     59 H8        -26.2682  -32.7282   15.7005 H           1 PAX       0.0996
     60 H9        -27.3606  -34.4129   18.0183 H           1 PAX       0.0680
     61 H10       -25.4455  -35.5626   17.6025 H           1 PAX       0.2101
     62 H11       -28.1088  -36.0027   16.6008 H           1 PAX       0.0704
     63 H12       -35.2940  -32.1733   17.8254 H           1 PAX       0.0639
     64 H13       -33.8920  -31.5704   18.6812 H           1 PAX       0.0639
     65 H14       -32.4604  -32.9435   17.0084 H           1 PAX       0.0653
     66 H15       -32.9258  -35.8870   17.8530 H           1 PAX       0.0959
     67 H16       -35.7877  -34.9924   17.2568 H           1 PAX       0.0348
     68 H17       -34.7785  -36.1812   16.4238 H           1 PAX       0.0348
     69 H18       -34.9663  -33.4688   15.6947 H           1 PAX       0.0686
     70 H19       -33.0817  -37.5089   19.4504 H           1 PAX       0.1011
     71 H20       -36.7739  -35.5942   21.4893 H           1 PAX       0.2259
     72 H21       -32.8818  -39.2133   21.0598 H           1 PAX       0.0296
     73 H22       -34.4885  -39.7231   21.5883 H           1 PAX       0.0296
     74 H23       -33.5122  -38.6563   22.6136 H           1 PAX       0.0296
@<TRIPOS>BOND
     1     1     2  ar
     2     1     3  ar
     3     1     4   1
     4     8     1   1
     5     4    23   1
     6     5     6  ar
     7     5     7  ar
     8     5     8   1
     9    38     5   1
    10     9    10  ar
    11     9    11  ar
    12     9    12  ar
    13    30     9   1
    14    13    14   1
    15    13    22   1
    16    26    13   1
    17    14    15  ar
    18    14    20  ar
    19    15    16  ar
    20    16    17  ar
    21    18    17  ar
    22    18    19   1
    23    20    18  ar
    24    21    20   1
    25    22    21   2
    26    23    24   1
    27    24    25   1
    28    24    29   1
    29    25    26   1
    30    27    26   1
    31    27    28   1
    32    29    27   1
    33    29    30   1
    34    32    31   1
    35    31    39   1
    36    33    32   1
    37    33    34   1
    38    37    33   1
    39    35    34   1
    40    36    35   1
    41    35    43   1
    42    37    36   1
    43    37    38   1
    44    39    40  ar
    45    39    41  ar
    46    39    42  ar
    47    43    44   1
    48    43    45  am
    49    44    50   2
    50    45    46   2
    51    45    47  am
    52    47    48  am
    53    48    49   2
    54    48    50   1
    55    50    51   1
    56    16    52   1
    57    19    53   1
    58    19    54   1
    59    22    55   1
    60    23    56   1
    61    23    57   1
    62    24    58   1
    63    26    59   1
    64    27    60   1
    65    28    61   1
    66    29    62   1
    67    32    63   1
    68    32    64   1
    69    33    65   1
    70    35    66   1
    71    36    67   1
    72    36    68   1
    73    37    69   1
    74    44    70   1
    75    47    71   1
    76    51    72   1
    77    51    73   1
    78    51    74   1
@<TRIPOS>SUBSTRUCTURE
     1  PAX     14

