@<TRIPOS>MOLECULE
1u1b_ligand_092
    74    78
SMALL
GAST_HUCK
****
This file was generated by PARSER (from files_GN.cpp)

@<TRIPOS>ATOM
      1 PA        -31.8665  -30.6301   15.4065 P.3         1 PAX       0.2972
      2 O1A       -32.3204  -29.2690   15.6089 O.co2       1 PAX      -0.6127
      3 O2A       -31.3902  -30.7659   14.0435 O.co2       1 PAX      -0.6127
      4 O5        -30.7484  -30.8456   16.4754 O.3         1 PAX      -0.2476
      5 PB        -34.1727  -31.8321   14.7618 P.3         1 PAX       0.2974
      6 O1B       -34.6768  -30.6301   14.1414 O.co2       1 PAX      -0.6127
      7 O2B       -33.7061  -32.7157   13.7178 O.co2       1 PAX      -0.6127
      8 O3A       -33.0400  -31.5751   15.8161 O.3         1 PAX      -0.1319
      9 PG        -26.5719  -33.5337   17.4187 P.3         1 PAX       0.2013
     10 O1G       -25.1845  -33.7945   17.7153 O.co2       1 PAX      -0.5537
     11 O2G       -27.2833  -34.7784   17.5833 O.co2       1 PAX      -0.5537
     12 O3G       -26.6415  -33.1024   16.0442 O.co2       1 PAX      -0.5537
     13 N9A       -29.2816  -28.9334   20.2318 N.pl3       1 PAX      -0.1919
     14 C4A       -30.3691  -28.2019   19.9306 C.ar        1 PAX       0.1613
     15 N3A       -31.0722  -28.0684   18.7763 N.ar        1 PAX      -0.2714
     16 C2A       -32.1655  -27.2622   18.7304 C.ar        1 PAX       0.0533
     17 N1A       -32.5613  -26.5931   19.8473 N.ar        1 PAX      -0.2698
     18 C6A       -31.8902  -26.6932   21.0271 C.ar        1 PAX       0.1298
     19 N6A       -32.3271  -26.0117   22.0946 N.pl3       1 PAX      -0.3152
     20 C5A       -30.7680  -27.5357   21.0874 C.ar        1 PAX       0.1045
     21 N7A       -29.9215  -27.8589   22.0732 N.2         1 PAX      -0.2958
     22 C8A       -29.0260  -28.7134   21.5413 C.2         1 PAX       0.1123
     23 C5        -29.3695  -30.8369   16.0263 C.3         1 PAX       0.1131
     24 C4        -28.4131  -30.7064   17.2384 C.3         1 PAX       0.1235
     25 O4        -28.8009  -29.5418   17.9808 O.3         1 PAX      -0.3360
     26 C1        -28.5294  -29.7964   19.3620 C.3         1 PAX       0.2013
     27 C2        -28.9005  -31.2803   19.5284 C.3         1 PAX       0.1432
     28 O2        -28.3544  -31.8587   20.7120 O.3         1 PAX      -0.3832
     29 C3        -28.4069  -31.9201   18.2193 C.3         1 PAX       0.1487
     30 O3        -27.0805  -32.4573   18.4191 O.3         1 PAX      -0.2674
     31 O5        -36.2530  -35.3166   14.3043 O.3         1 PAX      -0.2734
     32 C5        -36.4758  -35.6974   15.6810 C.3         1 PAX       0.1074
     33 C4        -36.4382  -34.4254   16.5673 C.3         1 PAX       0.1209
     34 O4        -36.4711  -34.7668   17.9609 O.3         1 PAX      -0.3391
     35 C1        -35.9758  -33.6339   18.7011 C.3         1 PAX       0.1760
     36 C2        -34.8507  -33.0657   17.7951 C.3         1 PAX       0.0362
     37 C3        -35.1486  -33.5894   16.3773 C.3         1 PAX       0.1284
     38 O3        -35.4069  -32.5226   15.4268 O.3         1 PAX      -0.2441
     39 PD        -35.6548  -36.3963   13.3666 P.3         1 PAX       0.2008
     40 O1D       -36.6554  -37.2320   12.7361 O.co2       1 PAX      -0.5537
     41 O2D       -34.6798  -37.2018   14.0543 O.co2       1 PAX      -0.5537
     42 O3D       -34.9565  -35.6961   12.3124 O.co2       1 PAX      -0.5537
     43 N1T       -35.5438  -33.9211   20.0666 N.am        1 PAX      -0.1736
     44 C6T       -35.7422  -35.1468   20.6445 C.2         1 PAX       0.0524
     45 C2T       -34.9434  -32.9669   20.8122 C.2         1 PAX       0.3265
     46 O2T       -34.7369  -31.8252   20.4230 O.2         1 PAX      -0.3843
     47 N3T       -34.5212  -33.2369   22.0417 N.am        1 PAX      -0.1859
     48 C4T       -34.6895  -34.4350   22.5938 C.2         1 PAX       0.1930
     49 O4T       -34.2376  -34.6079   23.7189 O.2         1 PAX      -0.4079
     50 C5T       -35.3362  -35.4358   21.9053 C.2         1 PAX       0.0225
     51 CM5       -35.6164  -36.7303   22.5263 C.3         1 PAX      -0.0437
     52 H1        -32.6912  -27.1610   17.8616 H           1 PAX       0.0996
     53 H2        -31.8458  -26.0454   22.9335 H           1 PAX       0.1820
     54 H3        -33.1111  -25.4487   22.0171 H           1 PAX       0.1820
     55 H4        -28.2571  -29.1295   22.0710 H           1 PAX       0.1349
     56 H5        -29.1686  -29.9991   15.3396 H           1 PAX       0.0648
     57 H6        -29.1583  -31.7753   15.4970 H           1 PAX       0.0648
     58 H7        -27.4043  -30.5323   16.8553 H           1 PAX       0.0654
     59 H8        -27.4568  -29.6407   19.5371 H           1 PAX       0.0996
     60 H9        -29.9891  -31.3746   19.5824 H           1 PAX       0.0680
     61 H10       -27.4547  -31.4841   20.8169 H           1 PAX       0.2101
     62 H11       -29.1201  -32.6990   17.9274 H           1 PAX       0.0704
     63 H12       -35.7015  -36.3856   16.0387 H           1 PAX       0.0639
     64 H13       -37.4520  -36.1824   15.7862 H           1 PAX       0.0639
     65 H14       -37.3209  -33.8152   16.3329 H           1 PAX       0.0653
     66 H15       -36.7896  -32.8996   18.7623 H           1 PAX       0.0959
     67 H16       -33.8626  -33.4164   18.1299 H           1 PAX       0.0348
     68 H17       -34.8603  -31.9664   17.8237 H           1 PAX       0.0348
     69 H18       -34.3256  -34.2506   16.0624 H           1 PAX       0.0686
     70 H19       -36.2164  -35.8526   20.1273 H           1 PAX       0.1011
     71 H20       -34.0707  -32.5407   22.5490 H           1 PAX       0.2259
     72 H21       -36.1686  -37.4078   21.8690 H           1 PAX       0.0296
     73 H22       -36.2136  -36.5818   23.4288 H           1 PAX       0.0296
     74 H23       -34.6785  -37.2173   22.7991 H           1 PAX       0.0296
@<TRIPOS>BOND
     1     1     2  ar
     2     1     3  ar
     3     1     4   1
     4     8     1   1
     5     4    23   1
     6     5     6  ar
     7     5     7  ar
     8     5     8   1
     9    38     5   1
    10     9    10  ar
    11     9    11  ar
    12     9    12  ar
    13    30     9   1
    14    13    14   1
    15    13    22   1
    16    26    13   1
    17    14    15  ar
    18    14    20  ar
    19    15    16  ar
    20    16    17  ar
    21    18    17  ar
    22    18    19   1
    23    20    18  ar
    24    21    20   1
    25    22    21   2
    26    23    24   1
    27    24    25   1
    28    24    29   1
    29    25    26   1
    30    27    26   1
    31    27    28   1
    32    29    27   1
    33    29    30   1
    34    32    31   1
    35    31    39   1
    36    33    32   1
    37    33    34   1
    38    37    33   1
    39    35    34   1
    40    36    35   1
    41    35    43   1
    42    37    36   1
    43    37    38   1
    44    39    40  ar
    45    39    41  ar
    46    39    42  ar
    47    43    44   1
    48    43    45  am
    49    44    50   2
    50    45    46   2
    51    45    47  am
    52    47    48  am
    53    48    49   2
    54    48    50   1
    55    50    51   1
    56    16    52   1
    57    19    53   1
    58    19    54   1
    59    22    55   1
    60    23    56   1
    61    23    57   1
    62    24    58   1
    63    26    59   1
    64    27    60   1
    65    28    61   1
    66    29    62   1
    67    32    63   1
    68    32    64   1
    69    33    65   1
    70    35    66   1
    71    36    67   1
    72    36    68   1
    73    37    69   1
    74    44    70   1
    75    47    71   1
    76    51    72   1
    77    51    73   1
    78    51    74   1
@<TRIPOS>SUBSTRUCTURE
     1  PAX     14

