@<TRIPOS>MOLECULE
1u1b_ligand_021
    74    78
SMALL
GAST_HUCK
****
This file was generated by PARSER (from files_GN.cpp)

@<TRIPOS>ATOM
      1 PA        -30.5223  -33.2745   16.3766 P.3         1 PAX       0.2972
      2 O1A       -29.3931  -33.9427   15.7616 O.co2       1 PAX      -0.6127
      3 O2A       -30.4799  -33.7644   17.7375 O.co2       1 PAX      -0.6127
      4 O5        -30.3801  -31.7130   16.3477 O.3         1 PAX      -0.2476
      5 PB        -33.0489  -33.1035   15.5852 P.3         1 PAX       0.2974
      6 O1B       -32.9769  -31.7053   15.2513 O.co2       1 PAX      -0.6127
      7 O2B       -33.6110  -33.6120   14.3554 O.co2       1 PAX      -0.6127
      8 O3A       -31.7069  -33.8840   15.5716 O.3         1 PAX      -0.1319
      9 PG        -26.2864  -33.6979   18.8917 P.3         1 PAX       0.2013
     10 O1G       -24.9792  -33.6928   19.5105 O.co2       1 PAX      -0.5537
     11 O2G       -27.2067  -34.3703   19.7801 O.co2       1 PAX      -0.5537
     12 O3G       -26.1883  -34.4470   17.6617 O.co2       1 PAX      -0.5537
     13 N9A       -29.2698  -28.9626   20.2368 N.pl3       1 PAX      -0.1919
     14 C4A       -30.3587  -28.2389   19.9199 C.ar        1 PAX       0.1613
     15 N3A       -31.0604  -28.1175   18.7634 N.ar        1 PAX      -0.2714
     16 C2A       -32.1511  -27.3059   18.7113 C.ar        1 PAX       0.0533
     17 N1A       -32.5349  -26.6094   19.8177 N.ar        1 PAX      -0.2698
     18 C6A       -31.8675  -26.6969   20.9976 C.ar        1 PAX       0.1298
     19 N6A       -32.2805  -25.9756   22.0504 N.pl3       1 PAX      -0.3152
     20 C5A       -30.7440  -27.5411   21.0633 C.ar        1 PAX       0.1045
     21 N7A       -29.8953  -27.8369   22.0544 N.2         1 PAX      -0.2958
     22 C8A       -29.0006  -28.6996   21.5359 C.2         1 PAX       0.1123
     23 C5        -29.1030  -31.0856   16.0562 C.3         1 PAX       0.1131
     24 C4        -28.2248  -30.7968   17.3085 C.3         1 PAX       0.1235
     25 O4        -28.7478  -29.6448   17.9896 O.3         1 PAX      -0.3360
     26 C1        -28.4891  -29.8198   19.3880 C.3         1 PAX       0.2013
     27 C2        -28.7769  -31.3173   19.5915 C.3         1 PAX       0.1432
     28 O2        -28.3086  -31.8155   20.8409 O.3         1 PAX      -0.3832
     29 C3        -28.1021  -31.9456   18.3550 C.3         1 PAX       0.1487
     30 O3        -26.6940  -32.2237   18.6026 O.3         1 PAX      -0.2674
     31 O5        -35.3786  -34.5822   20.9113 O.3         1 PAX      -0.2734
     32 C5        -35.3421  -34.8133   19.4843 C.3         1 PAX       0.1074
     33 C4        -35.4975  -33.5398   18.5917 C.3         1 PAX       0.1209
     34 O4        -36.0366  -32.4451   19.3494 O.3         1 PAX      -0.3391
     35 C1        -35.7836  -31.2469   18.6005 C.3         1 PAX       0.1760
     36 C2        -34.3655  -31.4707   18.0277 C.3         1 PAX       0.0362
     37 C3        -34.2024  -33.0054   17.9165 C.3         1 PAX       0.1284
     38 O3        -34.1702  -33.5292   16.5723 O.3         1 PAX      -0.2441
     39 PD        -34.1324  -33.9299   21.5880 P.3         1 PAX       0.2008
     40 O1D       -32.9250  -34.6509   21.2817 O.co2       1 PAX      -0.5537
     41 O2D       -34.3105  -33.9463   23.0167 O.co2       1 PAX      -0.5537
     42 O3D       -33.9908  -32.5450   21.2168 O.co2       1 PAX      -0.5537
     43 N1T       -35.9022  -29.9887   19.3269 N.am        1 PAX      -0.1736
     44 C6T       -35.7715  -28.8196   18.6222 C.2         1 PAX       0.0524
     45 C2T       -36.1664  -29.9099   20.6462 C.2         1 PAX       0.3265
     46 O2T       -36.2803  -30.8802   21.3879 O.2         1 PAX      -0.3843
     47 N3T       -36.2821  -28.7243   21.2317 N.am        1 PAX      -0.1859
     48 C4T       -36.1310  -27.5875   20.5572 C.2         1 PAX       0.1930
     49 O4T       -36.1731  -26.5488   21.1985 O.2         1 PAX      -0.4079
     50 C5T       -35.8866  -27.6042   19.2057 C.2         1 PAX       0.0225
     51 CM5       -35.8056  -26.3656   18.4337 C.3         1 PAX      -0.0437
     52 H1        -32.6785  -27.2130   17.8427 H           1 PAX       0.0996
     53 H2        -31.7877  -25.9910   22.8856 H           1 PAX       0.1820
     54 H3        -33.0573  -25.4014   21.9620 H           1 PAX       0.1820
     55 H4        -28.2176  -29.0913   22.0664 H           1 PAX       0.1349
     56 H5        -29.3439  -30.1211   15.6003 H           1 PAX       0.0648
     57 H6        -28.5039  -31.6209   15.3106 H           1 PAX       0.0648
     58 H7        -27.2286  -30.5224   16.9451 H           1 PAX       0.0654
     59 H8        -27.4297  -29.6036   19.5691 H           1 PAX       0.0996
     60 H9        -29.8568  -31.4896   19.5390 H           1 PAX       0.0680
     61 H10       -27.4136  -31.4467   20.9592 H           1 PAX       0.2101
     62 H11       -28.6634  -32.8351   18.0288 H           1 PAX       0.0704
     63 H12       -36.2090  -35.4490   19.2925 H           1 PAX       0.0639
     64 H13       -34.4705  -35.4030   19.1838 H           1 PAX       0.0639
     65 H14       -36.2358  -33.7685   17.8059 H           1 PAX       0.0653
     66 H15       -36.5069  -31.2308   17.7708 H           1 PAX       0.0959
     67 H16       -33.6074  -31.0647   18.7078 H           1 PAX       0.0348
     68 H17       -34.2662  -30.9646   17.0630 H           1 PAX       0.0348
     69 H18       -33.3241  -33.3270   18.4815 H           1 PAX       0.0686
     70 H19       -35.6008  -28.8613   17.6397 H           1 PAX       0.1011
     71 H20       -36.4691  -28.6868   22.1830 H           1 PAX       0.2259
     72 H21       -35.5574  -26.5350   17.3831 H           1 PAX       0.0296
     73 H22       -35.0413  -25.7110   18.8533 H           1 PAX       0.0296
     74 H23       -36.7659  -25.8492   18.4736 H           1 PAX       0.0296
@<TRIPOS>BOND
     1     1     2  ar
     2     1     3  ar
     3     1     4   1
     4     8     1   1
     5     4    23   1
     6     5     6  ar
     7     5     7  ar
     8     5     8   1
     9    38     5   1
    10     9    10  ar
    11     9    11  ar
    12     9    12  ar
    13    30     9   1
    14    13    14   1
    15    13    22   1
    16    26    13   1
    17    14    15  ar
    18    14    20  ar
    19    15    16  ar
    20    16    17  ar
    21    18    17  ar
    22    18    19   1
    23    20    18  ar
    24    21    20   1
    25    22    21   2
    26    23    24   1
    27    24    25   1
    28    24    29   1
    29    25    26   1
    30    27    26   1
    31    27    28   1
    32    29    27   1
    33    29    30   1
    34    32    31   1
    35    31    39   1
    36    33    32   1
    37    33    34   1
    38    37    33   1
    39    35    34   1
    40    36    35   1
    41    35    43   1
    42    37    36   1
    43    37    38   1
    44    39    40  ar
    45    39    41  ar
    46    39    42  ar
    47    43    44   1
    48    43    45  am
    49    44    50   2
    50    45    46   2
    51    45    47  am
    52    47    48  am
    53    48    49   2
    54    48    50   1
    55    50    51   1
    56    16    52   1
    57    19    53   1
    58    19    54   1
    59    22    55   1
    60    23    56   1
    61    23    57   1
    62    24    58   1
    63    26    59   1
    64    27    60   1
    65    28    61   1
    66    29    62   1
    67    32    63   1
    68    32    64   1
    69    33    65   1
    70    35    66   1
    71    36    67   1
    72    36    68   1
    73    37    69   1
    74    44    70   1
    75    47    71   1
    76    51    72   1
    77    51    73   1
    78    51    74   1
@<TRIPOS>SUBSTRUCTURE
     1  PAX     14

