@<TRIPOS>MOLECULE
1u1b_ligand_074
    74    78
SMALL
GAST_HUCK
****
This file was generated by PARSER (from files_GN.cpp)

@<TRIPOS>ATOM
      1 PA        -31.6893  -32.5951   18.1703 P.3         1 PAX       0.2972
      2 O1A       -31.4184  -31.8556   19.3753 O.co2       1 PAX      -0.6127
      3 O2A       -32.0705  -31.6581   17.1363 O.co2       1 PAX      -0.6127
      4 O5        -30.3572  -33.3568   17.8696 O.3         1 PAX      -0.2476
      5 PB        -34.2100  -33.2332   18.7705 P.3         1 PAX       0.2974
      6 O1B       -34.9243  -34.4019   19.2221 O.co2       1 PAX      -0.6127
      7 O2B       -34.1537  -32.3772   19.9286 O.co2       1 PAX      -0.6127
      8 O3A       -32.7651  -33.6995   18.4089 O.3         1 PAX      -0.1319
      9 PG        -25.4686  -32.5318   16.1350 P.3         1 PAX       0.2013
     10 O1G       -26.2674  -33.5211   15.4503 O.co2       1 PAX      -0.5537
     11 O2G       -24.6415  -31.8798   15.1444 O.co2       1 PAX      -0.5537
     12 O3G       -24.6001  -33.1905   17.0777 O.co2       1 PAX      -0.5537
     13 N9A       -29.5945  -29.0432   18.8397 N.pl3       1 PAX      -0.1919
     14 C4A       -29.5144  -28.7739   20.1599 C.ar        1 PAX       0.1613
     15 N3A       -28.6395  -29.1651   21.1232 N.ar        1 PAX      -0.2714
     16 C2A       -28.7754  -28.7250   22.4001 C.ar        1 PAX       0.0533
     17 N1A       -29.8003  -27.8910   22.7278 N.ar        1 PAX      -0.2698
     18 C6A       -30.7071  -27.4702   21.8035 C.ar        1 PAX       0.1298
     19 N6A       -31.6886  -26.6265   22.1669 N.pl3       1 PAX      -0.3152
     20 C5A       -30.5627  -27.9146   20.4794 C.ar        1 PAX       0.1045
     21 N7A       -31.2593  -27.6538   19.3676 N.2         1 PAX      -0.2958
     22 C8A       -30.6511  -28.3352   18.3786 C.2         1 PAX       0.1123
     23 C5        -29.6166  -33.0783   16.6600 C.3         1 PAX       0.1131
     24 C4        -28.7490  -31.7915   16.6983 C.3         1 PAX       0.1235
     25 O4        -29.5393  -30.6880   17.1555 O.3         1 PAX      -0.3360
     26 C1        -28.7465  -29.8469   18.0000 C.3         1 PAX       0.2013
     27 C2        -27.7847  -30.8276   18.6943 C.3         1 PAX       0.1432
     28 O2        -26.6346  -30.1477   19.1995 O.3         1 PAX      -0.3832
     29 C3        -27.4823  -31.8651   17.5988 C.3         1 PAX       0.1487
     30 O3        -26.3092  -31.4458   16.8607 O.3         1 PAX      -0.2674
     31 O5        -39.3402  -34.0045   16.6121 O.3         1 PAX      -0.2734
     32 C5        -38.1817  -33.1647   16.4014 C.3         1 PAX       0.1074
     33 C4        -36.8345  -33.8813   16.6949 C.3         1 PAX       0.1209
     34 O4        -36.6972  -35.0003   15.8033 O.3         1 PAX      -0.3391
     35 C1        -35.2929  -35.3066   15.6823 C.3         1 PAX       0.1760
     36 C2        -34.6765  -33.8888   15.5774 C.3         1 PAX       0.0362
     37 C3        -35.5672  -33.0054   16.4746 C.3         1 PAX       0.1284
     38 O3        -34.9877  -32.4348   17.6766 O.3         1 PAX      -0.2441
     39 PD        -39.8811  -34.1640   18.0638 P.3         1 PAX       0.2008
     40 O1D       -40.2088  -32.8887   18.6569 O.co2       1 PAX      -0.5537
     41 O2D       -38.9857  -34.8794   18.9334 O.co2       1 PAX      -0.5537
     42 O3D       -41.1144  -34.9177   18.0166 O.co2       1 PAX      -0.5537
     43 N1T       -35.0302  -36.2565   14.6022 N.am        1 PAX      -0.1736
     44 C6T       -33.9008  -36.1785   13.8287 C.2         1 PAX       0.0524
     45 C2T       -35.8373  -37.3257   14.4162 C.2         1 PAX       0.3265
     46 O2T       -36.8196  -37.5758   15.1062 O.2         1 PAX      -0.3843
     47 N3T       -35.5944  -38.1982   13.4432 N.am        1 PAX      -0.1859
     48 C4T       -34.5409  -38.0759   12.6472 C.2         1 PAX       0.1930
     49 O4T       -34.4121  -38.9188   11.7654 O.2         1 PAX      -0.4079
     50 C5T       -33.6239  -37.0730   12.8452 C.2         1 PAX       0.0225
     51 CM5       -32.3607  -36.9789   12.1121 C.3         1 PAX      -0.0437
     52 H1        -28.1142  -29.0292   23.1127 H           1 PAX       0.0996
     53 H2        -32.3353  -26.3206   21.5138 H           1 PAX       0.1820
     54 H3        -31.7311  -26.2926   23.0761 H           1 PAX       0.1820
     55 H4        -30.9641  -28.3194   17.4060 H           1 PAX       0.1349
     56 H5        -30.2692  -33.0593   15.7808 H           1 PAX       0.0648
     57 H6        -28.9505  -33.9283   16.5083 H           1 PAX       0.0648
     58 H7        -28.4510  -31.5657   15.6679 H           1 PAX       0.0654
     59 H8        -28.1722  -29.1770   17.3523 H           1 PAX       0.0996
     60 H9        -28.2948  -31.3214   19.5257 H           1 PAX       0.0680
     61 H10       -26.3363  -30.6633   19.9771 H           1 PAX       0.2101
     62 H11       -27.3498  -32.8431   18.0734 H           1 PAX       0.0704
     63 H12       -38.2440  -32.2227   16.9610 H           1 PAX       0.0639
     64 H13       -38.1921  -32.8972   15.3375 H           1 PAX       0.0639
     65 H14       -36.8544  -34.2524   17.7199 H           1 PAX       0.0653
     66 H15       -34.9489  -35.7772   16.6118 H           1 PAX       0.0959
     67 H16       -34.7383  -33.5375   14.5400 H           1 PAX       0.0348
     68 H17       -33.6302  -33.8800   15.8794 H           1 PAX       0.0348
     69 H18       -35.8512  -32.1248   15.8822 H           1 PAX       0.0686
     70 H19       -33.2330  -35.4638   14.0096 H           1 PAX       0.1011
     71 H20       -36.1987  -38.9495   13.3118 H           1 PAX       0.2259
     72 H21       -32.2901  -36.0041   11.6222 H           1 PAX       0.0296
     73 H22       -32.2507  -37.7484   11.3467 H           1 PAX       0.0296
     74 H23       -31.5254  -37.0771   12.8073 H           1 PAX       0.0296
@<TRIPOS>BOND
     1     1     2  ar
     2     1     3  ar
     3     1     4   1
     4     8     1   1
     5     4    23   1
     6     5     6  ar
     7     5     7  ar
     8     5     8   1
     9    38     5   1
    10     9    10  ar
    11     9    11  ar
    12     9    12  ar
    13    30     9   1
    14    13    14   1
    15    13    22   1
    16    26    13   1
    17    14    15  ar
    18    14    20  ar
    19    15    16  ar
    20    16    17  ar
    21    18    17  ar
    22    18    19   1
    23    20    18  ar
    24    21    20   1
    25    22    21   2
    26    23    24   1
    27    24    25   1
    28    24    29   1
    29    25    26   1
    30    27    26   1
    31    27    28   1
    32    29    27   1
    33    29    30   1
    34    32    31   1
    35    31    39   1
    36    33    32   1
    37    33    34   1
    38    37    33   1
    39    35    34   1
    40    36    35   1
    41    35    43   1
    42    37    36   1
    43    37    38   1
    44    39    40  ar
    45    39    41  ar
    46    39    42  ar
    47    43    44   1
    48    43    45  am
    49    44    50   2
    50    45    46   2
    51    45    47  am
    52    47    48  am
    53    48    49   2
    54    48    50   1
    55    50    51   1
    56    16    52   1
    57    19    53   1
    58    19    54   1
    59    22    55   1
    60    23    56   1
    61    23    57   1
    62    24    58   1
    63    26    59   1
    64    27    60   1
    65    28    61   1
    66    29    62   1
    67    32    63   1
    68    32    64   1
    69    33    65   1
    70    35    66   1
    71    36    67   1
    72    36    68   1
    73    37    69   1
    74    44    70   1
    75    47    71   1
    76    51    72   1
    77    51    73   1
    78    51    74   1
@<TRIPOS>SUBSTRUCTURE
     1  PAX     14

