@<TRIPOS>MOLECULE
1u1b_ligand_075
    74    78
SMALL
GAST_HUCK
****
This file was generated by PARSER (from files_GN.cpp)

@<TRIPOS>ATOM
      1 PA        -32.2496  -28.9442   16.2872 P.3         1 PAX       0.2972
      2 O1A       -30.9610  -29.0854   15.6531 O.co2       1 PAX      -0.6127
      3 O2A       -33.2466  -29.0321   15.2456 O.co2       1 PAX      -0.6127
      4 O5        -32.3957  -30.0130   17.4218 O.3         1 PAX      -0.2476
      5 PB        -31.5066  -27.1076   18.0599 P.3         1 PAX       0.2974
      6 O1B       -31.5940  -28.0250   19.1685 O.co2       1 PAX      -0.6127
      7 O2B       -30.1268  -26.9609   17.6682 O.co2       1 PAX      -0.6127
      8 O3A       -32.4318  -27.5187   16.8771 O.3         1 PAX      -0.1319
      9 PG        -35.4578  -33.1388   14.4004 P.3         1 PAX       0.2013
     10 O1G       -36.5123  -33.6825   15.2302 O.co2       1 PAX      -0.5537
     11 O2G       -35.4682  -31.7038   14.4859 O.co2       1 PAX      -0.5537
     12 O3G       -35.7802  -33.4761   13.0359 O.co2       1 PAX      -0.5537
     13 N9A       -29.8774  -34.2058   16.4324 N.pl3       1 PAX      -0.1919
     14 C4A       -29.2349  -33.7204   17.5094 C.ar        1 PAX       0.1613
     15 N3A       -29.5231  -32.6885   18.3469 N.ar        1 PAX      -0.2714
     16 C2A       -28.7162  -32.4238   19.4067 C.ar        1 PAX       0.0533
     17 N1A       -27.6235  -33.2020   19.6417 N.ar        1 PAX      -0.2698
     18 C6A       -27.2934  -34.2470   18.8316 C.ar        1 PAX       0.1298
     19 N6A       -26.2306  -35.0099   19.1337 N.pl3       1 PAX      -0.3152
     20 C5A       -28.1149  -34.5172   17.7257 C.ar        1 PAX       0.1045
     21 N7A       -28.0855  -35.4699   16.7829 N.2         1 PAX      -0.2958
     22 C8A       -29.1626  -35.2683   16.0028 C.2         1 PAX       0.1123
     23 C5        -33.2415  -31.1672   17.1845 C.3         1 PAX       0.1131
     24 C4        -32.7621  -32.1319   16.0593 C.3         1 PAX       0.1235
     25 O4        -31.3621  -32.3760   16.2325 O.3         1 PAX      -0.3360
     26 C1        -31.0967  -33.7258   15.8481 C.3         1 PAX       0.2013
     27 C2        -32.3470  -34.4926   16.3213 C.3         1 PAX       0.1432
     28 O2        -32.4930  -35.7583   15.6783 O.3         1 PAX      -0.3832
     29 C3        -33.5014  -33.5081   16.0317 C.3         1 PAX       0.1487
     30 O3        -34.0783  -33.7889   14.7285 O.3         1 PAX      -0.2674
     31 O5        -28.9384  -24.0515   16.5197 O.3         1 PAX      -0.2734
     32 C5        -29.9032  -23.1031   17.0228 C.3         1 PAX       0.1074
     33 C4        -30.6757  -23.7654   18.2019 C.3         1 PAX       0.1209
     34 O4        -31.1359  -22.7414   19.1028 O.3         1 PAX      -0.3391
     35 C1        -32.5292  -22.9170   19.4136 C.3         1 PAX       0.1760
     36 C2        -33.0679  -23.6241   18.1514 C.3         1 PAX       0.0362
     37 C3        -31.9265  -24.5849   17.7821 C.3         1 PAX       0.1284
     38 O3        -32.0583  -25.7629   18.6141 O.3         1 PAX      -0.2441
     39 PD        -28.1283  -23.6162   15.2670 P.3         1 PAX       0.2008
     40 O1D       -27.6792  -22.2434   15.3082 O.co2       1 PAX      -0.5537
     41 O2D       -28.8800  -23.8689   14.0588 O.co2       1 PAX      -0.5537
     42 O3D       -26.9468  -24.4468   15.2109 O.co2       1 PAX      -0.5537
     43 N1T       -33.2081  -21.6874   19.8150 N.am        1 PAX      -0.1736
     44 C6T       -32.4976  -20.5348   20.0200 C.2         1 PAX       0.0524
     45 C2T       -34.5269  -21.6711   20.1013 C.2         1 PAX       0.3265
     46 O2T       -35.2520  -22.6537   20.0268 O.2         1 PAX      -0.3843
     47 N3T       -35.1126  -20.5463   20.5094 N.am        1 PAX      -0.1859
     48 C4T       -34.4265  -19.4215   20.6776 C.2         1 PAX       0.1930
     49 O4T       -35.0512  -18.4298   21.0365 O.2         1 PAX      -0.4079
     50 C5T       -33.0700  -19.3905   20.4672 C.2         1 PAX       0.0225
     51 CM5       -32.2707  -18.2051   20.7648 C.3         1 PAX      -0.0437
     52 H1        -28.9373  -31.6503   20.0365 H           1 PAX       0.0996
     53 H2        -25.9916  -35.7668   18.5740 H           1 PAX       0.1820
     54 H3        -25.7382  -34.8462   19.9530 H           1 PAX       0.1820
     55 H4        -29.4018  -35.8528   15.2022 H           1 PAX       0.1349
     56 H5        -34.2739  -30.8618   16.9925 H           1 PAX       0.0648
     57 H6        -33.2520  -31.7209   18.1265 H           1 PAX       0.0648
     58 H7        -32.8782  -31.6381   15.0908 H           1 PAX       0.0654
     59 H8        -31.0212  -33.7590   14.7547 H           1 PAX       0.0996
     60 H9        -32.2798  -34.6612   17.4024 H           1 PAX       0.0680
     61 H10       -33.3013  -36.1492   16.0709 H           1 PAX       0.2101
     62 H11       -34.2536  -33.6073   16.8308 H           1 PAX       0.0704
     63 H12       -30.6084  -22.7790   16.2465 H           1 PAX       0.0639
     64 H13       -29.3753  -22.2196   17.3999 H           1 PAX       0.0639
     65 H14       -29.9748  -24.3934   18.7713 H           1 PAX       0.0653
     66 H15       -32.5928  -23.6149   20.2577 H           1 PAX       0.0959
     67 H16       -33.2346  -22.9018   17.3468 H           1 PAX       0.0348
     68 H17       -33.9915  -24.1745   18.3426 H           1 PAX       0.0348
     69 H18       -31.9605  -24.7956   16.7046 H           1 PAX       0.0686
     70 H19       -31.5164  -20.5256   19.8748 H           1 PAX       0.1011
     71 H20       -36.0643  -20.5462   20.6937 H           1 PAX       0.2259
     72 H21       -31.1995  -18.3710   20.6193 H           1 PAX       0.0296
     73 H22       -32.4165  -17.9090   21.8071 H           1 PAX       0.0296
     74 H23       -32.5738  -17.3807   20.1154 H           1 PAX       0.0296
@<TRIPOS>BOND
     1     1     2  ar
     2     1     3  ar
     3     1     4   1
     4     8     1   1
     5     4    23   1
     6     5     6  ar
     7     5     7  ar
     8     5     8   1
     9    38     5   1
    10     9    10  ar
    11     9    11  ar
    12     9    12  ar
    13    30     9   1
    14    13    14   1
    15    13    22   1
    16    26    13   1
    17    14    15  ar
    18    14    20  ar
    19    15    16  ar
    20    16    17  ar
    21    18    17  ar
    22    18    19   1
    23    20    18  ar
    24    21    20   1
    25    22    21   2
    26    23    24   1
    27    24    25   1
    28    24    29   1
    29    25    26   1
    30    27    26   1
    31    27    28   1
    32    29    27   1
    33    29    30   1
    34    32    31   1
    35    31    39   1
    36    33    32   1
    37    33    34   1
    38    37    33   1
    39    35    34   1
    40    36    35   1
    41    35    43   1
    42    37    36   1
    43    37    38   1
    44    39    40  ar
    45    39    41  ar
    46    39    42  ar
    47    43    44   1
    48    43    45  am
    49    44    50   2
    50    45    46   2
    51    45    47  am
    52    47    48  am
    53    48    49   2
    54    48    50   1
    55    50    51   1
    56    16    52   1
    57    19    53   1
    58    19    54   1
    59    22    55   1
    60    23    56   1
    61    23    57   1
    62    24    58   1
    63    26    59   1
    64    27    60   1
    65    28    61   1
    66    29    62   1
    67    32    63   1
    68    32    64   1
    69    33    65   1
    70    35    66   1
    71    36    67   1
    72    36    68   1
    73    37    69   1
    74    44    70   1
    75    47    71   1
    76    51    72   1
    77    51    73   1
    78    51    74   1
@<TRIPOS>SUBSTRUCTURE
     1  PAX     14

