@<TRIPOS>MOLECULE
1u1b_ligand_027
    74    78
SMALL
GAST_HUCK
****
This file was generated by PARSER (from files_GN.cpp)

@<TRIPOS>ATOM
      1 PA        -28.9709  -31.5476   18.8544 P.3         1 PAX       0.2972
      2 O1A       -28.7985  -31.2079   20.2488 O.co2       1 PAX      -0.6127
      3 O2A       -29.5978  -32.8512   18.7946 O.co2       1 PAX      -0.6127
      4 O5        -29.9994  -30.5542   18.2313 O.3         1 PAX      -0.2476
      5 PB        -26.3396  -31.9470   18.6004 P.3         1 PAX       0.2974
      6 O1B       -25.8784  -30.7629   19.2835 O.co2       1 PAX      -0.6127
      7 O2B       -26.3910  -33.0199   19.5678 O.co2       1 PAX      -0.6127
      8 O3A       -27.7088  -31.6131   17.9240 O.3         1 PAX      -0.1319
      9 PG        -33.5797  -29.5440   16.5696 P.3         1 PAX       0.2013
     10 O1G       -33.2635  -29.7527   17.9626 O.co2       1 PAX      -0.5537
     11 O2G       -34.8576  -28.8762   16.5032 O.co2       1 PAX      -0.5537
     12 O3G       -33.7304  -30.8041   15.8824 O.co2       1 PAX      -0.5537
     13 N9A       -28.9633  -26.1522   14.9788 N.pl3       1 PAX      -0.1919
     14 C4A       -28.7336  -24.8618   15.2814 C.ar        1 PAX       0.1613
     15 N3A       -29.3967  -24.0005   16.0972 N.ar        1 PAX      -0.2714
     16 C2A       -28.9700  -22.7159   16.2141 C.ar        1 PAX       0.0533
     17 N1A       -27.8850  -22.2870   15.5114 N.ar        1 PAX      -0.2698
     18 C6A       -27.1913  -23.1154   14.6841 C.ar        1 PAX       0.1298
     19 N6A       -26.1325  -22.6546   14.0022 N.pl3       1 PAX      -0.3152
     20 C5A       -27.6187  -24.4478   14.5604 C.ar        1 PAX       0.1045
     21 N7A       -27.1706  -25.4805   13.8354 N.2         1 PAX      -0.2958
     22 C8A       -27.9983  -26.5107   14.0984 C.2         1 PAX       0.1123
     23 C5        -29.4973  -29.2043   18.0541 C.3         1 PAX       0.1131
     24 C4        -30.5434  -28.3307   17.3135 C.3         1 PAX       0.1235
     25 O4        -29.8940  -27.1082   16.9188 O.3         1 PAX      -0.3360
     26 C1        -30.0651  -26.9193   15.5064 C.3         1 PAX       0.2013
     27 C2        -30.2882  -28.3367   14.9408 C.3         1 PAX       0.1432
     28 O2        -30.9093  -28.3220   13.6548 O.3         1 PAX      -0.3832
     29 C3        -31.1410  -28.9911   16.0371 C.3         1 PAX       0.1487
     30 O3        -32.5342  -28.6373   15.8656 O.3         1 PAX      -0.2674
     31 O5        -27.0054  -35.5390   14.9522 O.3         1 PAX      -0.2734
     32 C5        -27.0072  -35.2342   16.3682 C.3         1 PAX       0.1074
     33 C4        -25.6437  -34.6161   16.7845 C.3         1 PAX       0.1209
     34 O4        -24.5877  -35.3449   16.1393 O.3         1 PAX      -0.3391
     35 C1        -23.5300  -34.4244   15.8658 C.3         1 PAX       0.1760
     36 C2        -24.2210  -33.0838   15.5368 C.3         1 PAX       0.0362
     37 C3        -25.4787  -33.1010   16.4328 C.3         1 PAX       0.1284
     38 O3        -25.2056  -32.2402   17.5685 O.3         1 PAX      -0.2441
     39 PD        -27.0684  -37.0341   14.5319 P.3         1 PAX       0.2008
     40 O1D       -26.7091  -37.1523   13.1373 O.co2       1 PAX      -0.5537
     41 O2D       -28.4233  -37.5188   14.6620 O.co2       1 PAX      -0.5537
     42 O3D       -26.1955  -37.9011   15.2907 O.co2       1 PAX      -0.5537
     43 N1T       -22.6709  -34.9669   14.8210 N.am        1 PAX      -0.1736
     44 C6T       -21.3503  -35.2109   15.0820 C.2         1 PAX       0.0524
     45 C2T       -23.1482  -35.3256   13.6083 C.2         1 PAX       0.3265
     46 O2T       -24.3243  -35.2207   13.2856 O.2         1 PAX      -0.3843
     47 N3T       -22.3316  -35.8193   12.6820 N.am        1 PAX      -0.1859
     48 C4T       -21.0412  -36.0291   12.9247 C.2         1 PAX       0.1930
     49 O4T       -20.3720  -36.4664   11.9997 O.2         1 PAX      -0.4079
     50 C5T       -20.5139  -35.7551   14.1669 C.2         1 PAX       0.0225
     51 CM5       -19.1366  -36.0818   14.5384 C.3         1 PAX      -0.0437
     52 H1        -29.4690  -22.0693   16.8252 H           1 PAX       0.0996
     53 H2        -25.6421  -23.2454   13.4104 H           1 PAX       0.1820
     54 H3        -25.8657  -21.7267   14.0891 H           1 PAX       0.1820
     55 H4        -27.8907  -27.4305   13.6669 H           1 PAX       0.1349
     56 H5        -28.5676  -29.2030   17.4641 H           1 PAX       0.0648
     57 H6        -29.2893  -28.7357   19.0281 H           1 PAX       0.0648
     58 H7        -31.3389  -28.0850   18.0218 H           1 PAX       0.0654
     59 H8        -30.9834  -26.3387   15.3476 H           1 PAX       0.0996
     60 H9        -29.3333  -28.8700   14.8691 H           1 PAX       0.0680
     61 H10       -31.0213  -29.2646   13.4160 H           1 PAX       0.2101
     62 H11       -30.9813  -30.0750   15.9885 H           1 PAX       0.0704
     63 H12       -27.2086  -36.0952   17.0144 H           1 PAX       0.0639
     64 H13       -27.8050  -34.5124   16.5555 H           1 PAX       0.0639
     65 H14       -25.5116  -34.7543   17.8632 H           1 PAX       0.0653
     66 H15       -22.9780  -34.2841   16.8044 H           1 PAX       0.0959
     67 H16       -24.5154  -33.0304   14.4846 H           1 PAX       0.0348
     68 H17       -23.5552  -32.2378   15.7530 H           1 PAX       0.0348
     69 H18       -26.3262  -32.7087   15.8518 H           1 PAX       0.0686
     70 H19       -20.9820  -35.0055   15.9843 H           1 PAX       0.1011
     71 H20       -22.6904  -36.0422   11.8060 H           1 PAX       0.2259
     72 H21       -18.6231  -35.1787   14.8851 H           1 PAX       0.0296
     73 H22       -18.5585  -36.5001   13.7075 H           1 PAX       0.0296
     74 H23       -19.1425  -36.8206   15.3481 H           1 PAX       0.0296
@<TRIPOS>BOND
     1     1     2  ar
     2     1     3  ar
     3     1     4   1
     4     8     1   1
     5     4    23   1
     6     5     6  ar
     7     5     7  ar
     8     5     8   1
     9    38     5   1
    10     9    10  ar
    11     9    11  ar
    12     9    12  ar
    13    30     9   1
    14    13    14   1
    15    13    22   1
    16    26    13   1
    17    14    15  ar
    18    14    20  ar
    19    15    16  ar
    20    16    17  ar
    21    18    17  ar
    22    18    19   1
    23    20    18  ar
    24    21    20   1
    25    22    21   2
    26    23    24   1
    27    24    25   1
    28    24    29   1
    29    25    26   1
    30    27    26   1
    31    27    28   1
    32    29    27   1
    33    29    30   1
    34    32    31   1
    35    31    39   1
    36    33    32   1
    37    33    34   1
    38    37    33   1
    39    35    34   1
    40    36    35   1
    41    35    43   1
    42    37    36   1
    43    37    38   1
    44    39    40  ar
    45    39    41  ar
    46    39    42  ar
    47    43    44   1
    48    43    45  am
    49    44    50   2
    50    45    46   2
    51    45    47  am
    52    47    48  am
    53    48    49   2
    54    48    50   1
    55    50    51   1
    56    16    52   1
    57    19    53   1
    58    19    54   1
    59    22    55   1
    60    23    56   1
    61    23    57   1
    62    24    58   1
    63    26    59   1
    64    27    60   1
    65    28    61   1
    66    29    62   1
    67    32    63   1
    68    32    64   1
    69    33    65   1
    70    35    66   1
    71    36    67   1
    72    36    68   1
    73    37    69   1
    74    44    70   1
    75    47    71   1
    76    51    72   1
    77    51    73   1
    78    51    74   1
@<TRIPOS>SUBSTRUCTURE
     1  PAX     14

