@<TRIPOS>MOLECULE
1u1b_ligand_071
    74    78
SMALL
GAST_HUCK
****
This file was generated by PARSER (from files_GN.cpp)

@<TRIPOS>ATOM
      1 PA        -29.7584  -31.8932   18.3371 P.3         1 PAX       0.2972
      2 O1A       -30.1930  -30.8297   17.4631 O.co2       1 PAX      -0.6127
      3 O2A       -30.0089  -31.3340   19.6409 O.co2       1 PAX      -0.6127
      4 O5        -30.5812  -33.2287   18.2818 O.3         1 PAX      -0.2476
      5 PB        -27.6225  -32.5139   16.9096 P.3         1 PAX       0.2974
      6 O1B       -27.9272  -31.5357   15.8859 O.co2       1 PAX      -0.6127
      7 O2B       -26.1858  -32.4741   17.0734 O.co2       1 PAX      -0.6127
      8 O3A       -28.2102  -32.0965   18.2945 O.3         1 PAX      -0.1319
      9 PG        -34.0879  -35.9734   14.0378 P.3         1 PAX       0.2013
     10 O1G       -34.2147  -34.7155   13.3489 O.co2       1 PAX      -0.5537
     11 O2G       -33.3390  -36.8464   13.1716 O.co2       1 PAX      -0.5537
     12 O3G       -35.3870  -36.5821   14.1652 O.co2       1 PAX      -0.5537
     13 N9A       -34.8641  -35.3909   19.6658 N.pl3       1 PAX      -0.1919
     14 C4A       -34.3959  -35.0847   20.8927 C.ar        1 PAX       0.1613
     15 N3A       -33.1399  -34.8252   21.3470 N.ar        1 PAX      -0.2714
     16 C2A       -32.9330  -34.5565   22.6651 C.ar        1 PAX       0.0533
     17 N1A       -33.9790  -34.5491   23.5361 N.ar        1 PAX      -0.2698
     18 C6A       -35.2522  -34.8131   23.1335 C.ar        1 PAX       0.1298
     19 N6A       -36.2563  -34.8036   24.0254 N.pl3       1 PAX      -0.3152
     20 C5A       -35.4765  -35.0915   21.7739 C.ar        1 PAX       0.1045
     21 N7A       -36.5815  -35.4200   21.0920 N.2         1 PAX      -0.2958
     22 C8A       -36.1906  -35.6068   19.8175 C.2         1 PAX       0.1123
     23 C5        -31.6136  -33.2899   17.2711 C.3         1 PAX       0.1131
     24 C4        -32.2976  -34.6840   17.2476 C.3         1 PAX       0.1235
     25 O4        -32.7880  -35.0082   18.5614 O.3         1 PAX      -0.3360
     26 C1        -34.1175  -35.5391   18.4439 C.3         1 PAX       0.2013
     27 C2        -34.6921  -34.7928   17.2248 C.3         1 PAX       0.1432
     28 O2        -35.8459  -35.4097   16.6686 O.3         1 PAX      -0.3832
     29 C3        -33.4926  -34.7452   16.2538 C.3         1 PAX       0.1487
     30 O3        -33.3182  -35.9050   15.3940 O.3         1 PAX      -0.2674
     31 O5        -30.8298  -33.8792   13.8189 O.3         1 PAX      -0.2734
     32 C5        -30.1433  -35.1400   13.6551 C.3         1 PAX       0.1074
     33 C4        -29.2588  -35.3561   14.9114 C.3         1 PAX       0.1209
     34 O4        -28.6064  -36.6356   14.8431 O.3         1 PAX      -0.3391
     35 C1        -27.1758  -36.4826   14.7835 C.3         1 PAX       0.1760
     36 C2        -26.9324  -34.9764   14.5122 C.3         1 PAX       0.0362
     37 C3        -28.1697  -34.2671   15.0875 C.3         1 PAX       0.1284
     38 O3        -28.0519  -33.9645   16.5024 O.3         1 PAX      -0.2441
     39 PD        -31.3544  -33.1908   12.5246 P.3         1 PAX       0.2008
     40 O1D       -32.1703  -34.0477   11.6945 O.co2       1 PAX      -0.5537
     41 O2D       -30.2494  -32.6685   11.7560 O.co2       1 PAX      -0.5537
     42 O3D       -32.1573  -32.0678   12.9377 O.co2       1 PAX      -0.5537
     43 N1T       -26.4931  -37.3691   13.8415 N.am        1 PAX      -0.1736
     44 C6T       -25.1259  -37.2979   13.7431 C.2         1 PAX       0.0524
     45 C2T       -27.1312  -38.2745   13.0674 C.2         1 PAX       0.3265
     46 O2T       -28.3381  -38.4799   13.0756 O.2         1 PAX      -0.3843
     47 N3T       -26.4412  -39.0278   12.2153 N.am        1 PAX      -0.1859
     48 C4T       -25.1227  -38.9264   12.0909 C.2         1 PAX       0.1930
     49 O4T       -24.5852  -39.6604   11.2737 O.2         1 PAX      -0.4079
     50 C5T       -24.4165  -38.0367   12.8572 C.2         1 PAX       0.0225
     51 CM5       -22.9711  -37.9028   12.7249 C.3         1 PAX      -0.0437
     52 H1        -31.9924  -34.3655   23.0069 H           1 PAX       0.0996
     53 H2        -37.1640  -34.9935   23.7352 H           1 PAX       0.1820
     54 H3        -36.0770  -34.6062   24.9596 H           1 PAX       0.1820
     55 H4        -36.8346  -35.8908   19.0794 H           1 PAX       0.1349
     56 H5        -31.1847  -33.1034   16.2800 H           1 PAX       0.0648
     57 H6        -32.3848  -32.5302   17.4721 H           1 PAX       0.0648
     58 H7        -31.5383  -35.4274   16.9960 H           1 PAX       0.0654
     59 H8        -34.0484  -36.6077   18.2148 H           1 PAX       0.0996
     60 H9        -34.9591  -33.7716   17.5185 H           1 PAX       0.0680
     61 H10       -36.6166  -34.9647   17.0922 H           1 PAX       0.2101
     62 H11       -33.5475  -33.8256   15.6557 H           1 PAX       0.0704
     63 H12       -29.4996  -35.1664   12.7644 H           1 PAX       0.0639
     64 H13       -30.8767  -35.9528   13.5883 H           1 PAX       0.0639
     65 H14       -29.9197  -35.3772   15.7889 H           1 PAX       0.0653
     66 H15       -26.8092  -36.7100   15.7922 H           1 PAX       0.0959
     67 H16       -26.8749  -34.8036   13.4283 H           1 PAX       0.0348
     68 H17       -26.0048  -34.6192   14.9784 H           1 PAX       0.0348
     69 H18       -28.4033  -33.3903   14.4737 H           1 PAX       0.0686
     70 H19       -24.6366  -36.6666   14.3360 H           1 PAX       0.1011
     71 H20       -26.9228  -39.6774   11.6661 H           1 PAX       0.2259
     72 H21       -22.5511  -37.1349   13.3767 H           1 PAX       0.0296
     73 H22       -22.7142  -37.6378   11.6984 H           1 PAX       0.0296
     74 H23       -22.4935  -38.8512   12.9726 H           1 PAX       0.0296
@<TRIPOS>BOND
     1     1     2  ar
     2     1     3  ar
     3     1     4   1
     4     8     1   1
     5     4    23   1
     6     5     6  ar
     7     5     7  ar
     8     5     8   1
     9    38     5   1
    10     9    10  ar
    11     9    11  ar
    12     9    12  ar
    13    30     9   1
    14    13    14   1
    15    13    22   1
    16    26    13   1
    17    14    15  ar
    18    14    20  ar
    19    15    16  ar
    20    16    17  ar
    21    18    17  ar
    22    18    19   1
    23    20    18  ar
    24    21    20   1
    25    22    21   2
    26    23    24   1
    27    24    25   1
    28    24    29   1
    29    25    26   1
    30    27    26   1
    31    27    28   1
    32    29    27   1
    33    29    30   1
    34    32    31   1
    35    31    39   1
    36    33    32   1
    37    33    34   1
    38    37    33   1
    39    35    34   1
    40    36    35   1
    41    35    43   1
    42    37    36   1
    43    37    38   1
    44    39    40  ar
    45    39    41  ar
    46    39    42  ar
    47    43    44   1
    48    43    45  am
    49    44    50   2
    50    45    46   2
    51    45    47  am
    52    47    48  am
    53    48    49   2
    54    48    50   1
    55    50    51   1
    56    16    52   1
    57    19    53   1
    58    19    54   1
    59    22    55   1
    60    23    56   1
    61    23    57   1
    62    24    58   1
    63    26    59   1
    64    27    60   1
    65    28    61   1
    66    29    62   1
    67    32    63   1
    68    32    64   1
    69    33    65   1
    70    35    66   1
    71    36    67   1
    72    36    68   1
    73    37    69   1
    74    44    70   1
    75    47    71   1
    76    51    72   1
    77    51    73   1
    78    51    74   1
@<TRIPOS>SUBSTRUCTURE
     1  PAX     14

