@<TRIPOS>MOLECULE
1u1b_ligand_062
    74    78
SMALL
GAST_HUCK
****
This file was generated by PARSER (from files_GN.cpp)

@<TRIPOS>ATOM
      1 PA        -23.7940  -33.0224   18.0773 P.3         1 PAX       0.2972
      2 O1A       -23.2218  -31.8304   18.6631 O.co2       1 PAX      -0.6127
      3 O2A       -23.9256  -34.0137   19.1226 O.co2       1 PAX      -0.6127
      4 O5        -25.2228  -32.7413   17.5141 O.3         1 PAX      -0.2476
      5 PB        -21.4420  -34.0116   17.2820 P.3         1 PAX       0.2974
      6 O1B       -20.8395  -33.2189   18.3217 O.co2       1 PAX      -0.6127
      7 O2B       -21.5088  -35.3830   17.7168 O.co2       1 PAX      -0.6127
      8 O3A       -22.8826  -33.5227   16.9150 O.3         1 PAX      -0.1319
      9 PG        -29.8564  -33.6188   16.2552 P.3         1 PAX       0.2013
     10 O1G       -29.8310  -34.8535   15.4997 O.co2       1 PAX      -0.5537
     11 O2G       -29.9377  -34.0227   17.6330 O.co2       1 PAX      -0.5537
     12 O3G       -31.0812  -32.9692   15.8575 O.co2       1 PAX      -0.5537
     13 N9A       -29.9483  -29.4116   18.8121 N.pl3       1 PAX      -0.1919
     14 C4A       -29.7286  -28.9891   20.0720 C.ar        1 PAX       0.1613
     15 N3A       -28.8995  -29.4355   21.0521 N.ar        1 PAX      -0.2714
     16 C2A       -28.8959  -28.8387   22.2792 C.ar        1 PAX       0.0533
     17 N1A       -29.7443  -27.8052   22.5315 N.ar        1 PAX      -0.2698
     18 C6A       -30.5997  -27.3278   21.5893 C.ar        1 PAX       0.1298
     19 N6A       -31.4322  -26.3149   21.8746 N.pl3       1 PAX      -0.3152
     20 C5A       -30.5920  -27.9260   20.3176 C.ar        1 PAX       0.1045
     21 N7A       -31.3226  -27.7063   19.2196 N.2         1 PAX      -0.2958
     22 C8A       -30.9296  -28.6229   18.3185 C.2         1 PAX       0.1123
     23 C5        -26.0021  -31.7180   18.1829 C.3         1 PAX       0.1131
     24 C4        -27.5153  -31.9459   17.9531 C.3         1 PAX       0.1235
     25 O4        -28.2347  -31.0739   18.8428 O.3         1 PAX      -0.3360
     26 C1        -29.4188  -30.5995   18.1884 C.3         1 PAX       0.2013
     27 C2        -28.9697  -30.4473   16.7217 C.3         1 PAX       0.1432
     28 O2        -30.0537  -30.3736   15.7968 O.3         1 PAX      -0.3832
     29 C3        -28.0454  -31.6646   16.5139 C.3         1 PAX       0.1487
     30 O3        -28.5759  -32.8360   15.8310 O.3         1 PAX      -0.2674
     31 O5        -16.7204  -36.1638   16.5271 O.3         1 PAX      -0.2734
     32 C5        -17.4715  -35.4091   17.5024 C.3         1 PAX       0.1074
     33 C4        -18.1769  -34.1970   16.8466 C.3         1 PAX       0.1209
     34 O4        -17.2231  -33.4197   16.1244 O.3         1 PAX      -0.3391
     35 C1        -17.6911  -33.1707   14.7925 C.3         1 PAX       0.1760
     36 C2        -18.6988  -34.3011   14.5101 C.3         1 PAX       0.0362
     37 C3        -19.3296  -34.5901   15.8796 C.3         1 PAX       0.1284
     38 O3        -20.5554  -33.8296   16.0055 O.3         1 PAX      -0.2441
     39 PD        -17.0256  -37.6725   16.2891 P.3         1 PAX       0.2008
     40 O1D       -17.8823  -38.3324   17.2409 O.co2       1 PAX      -0.5537
     41 O2D       -15.7602  -38.3574   16.3331 O.co2       1 PAX      -0.5537
     42 O3D       -17.5364  -37.8797   14.9581 O.co2       1 PAX      -0.5537
     43 N1T       -16.6414  -33.0508   13.7858 N.am        1 PAX      -0.1736
     44 C6T       -16.9907  -32.6177   12.5340 C.2         1 PAX       0.0524
     45 C2T       -15.3387  -33.3374   14.0110 C.2         1 PAX       0.3265
     46 O2T       -14.8858  -33.7427   15.0715 O.2         1 PAX      -0.3843
     47 N3T       -14.4389  -33.1872   13.0426 N.am        1 PAX      -0.1859
     48 C4T       -14.7780  -32.7747   11.8282 C.2         1 PAX       0.1930
     49 O4T       -13.8814  -32.6667   11.0064 O.2         1 PAX      -0.4079
     50 C5T       -16.0914  -32.4846   11.5328 C.2         1 PAX       0.0225
     51 CM5       -16.4824  -32.0630   10.1925 C.3         1 PAX      -0.0437
     52 H1        -28.2716  -29.1844   23.0095 H           1 PAX       0.0996
     53 H2        -32.0403  -25.9818   21.2009 H           1 PAX       0.1820
     54 H3        -31.4310  -25.9172   22.7564 H           1 PAX       0.1820
     55 H4        -31.3507  -28.7067   17.3905 H           1 PAX       0.1349
     56 H5        -25.7053  -30.7351   17.7977 H           1 PAX       0.0648
     57 H6        -25.8430  -31.7195   19.2696 H           1 PAX       0.0648
     58 H7        -27.7321  -32.9750   18.2437 H           1 PAX       0.0654
     59 H8        -30.1893  -31.3755   18.2627 H           1 PAX       0.0996
     60 H9        -28.3862  -29.5250   16.6282 H           1 PAX       0.0680
     61 H10       -29.6366  -30.3055   14.9138 H           1 PAX       0.2101
     62 H11       -27.2200  -31.3435   15.8683 H           1 PAX       0.0704
     63 H12       -16.7522  -35.0405   18.2376 H           1 PAX       0.0639
     64 H13       -18.2217  -35.9833   18.0516 H           1 PAX       0.0639
     65 H14       -18.5331  -33.5524   17.6445 H           1 PAX       0.0653
     66 H15       -18.2344  -32.2211   14.8386 H           1 PAX       0.0959
     67 H16       -18.1722  -35.1848   14.1457 H           1 PAX       0.0348
     68 H17       -19.4457  -34.0098   13.7672 H           1 PAX       0.0348
     69 H18       -19.5688  -35.6554   15.9294 H           1 PAX       0.0686
     70 H19       -17.9418  -32.3867   12.3517 H           1 PAX       0.1011
     71 H20       -13.5053  -33.3947   13.2260 H           1 PAX       0.2259
     72 H21       -17.5589  -31.8985   10.0969 H           1 PAX       0.0296
     73 H22       -16.1975  -32.8322    9.4709 H           1 PAX       0.0296
     74 H23       -15.9726  -31.1310    9.9366 H           1 PAX       0.0296
@<TRIPOS>BOND
     1     1     2  ar
     2     1     3  ar
     3     1     4   1
     4     8     1   1
     5     4    23   1
     6     5     6  ar
     7     5     7  ar
     8     5     8   1
     9    38     5   1
    10     9    10  ar
    11     9    11  ar
    12     9    12  ar
    13    30     9   1
    14    13    14   1
    15    13    22   1
    16    26    13   1
    17    14    15  ar
    18    14    20  ar
    19    15    16  ar
    20    16    17  ar
    21    18    17  ar
    22    18    19   1
    23    20    18  ar
    24    21    20   1
    25    22    21   2
    26    23    24   1
    27    24    25   1
    28    24    29   1
    29    25    26   1
    30    27    26   1
    31    27    28   1
    32    29    27   1
    33    29    30   1
    34    32    31   1
    35    31    39   1
    36    33    32   1
    37    33    34   1
    38    37    33   1
    39    35    34   1
    40    36    35   1
    41    35    43   1
    42    37    36   1
    43    37    38   1
    44    39    40  ar
    45    39    41  ar
    46    39    42  ar
    47    43    44   1
    48    43    45  am
    49    44    50   2
    50    45    46   2
    51    45    47  am
    52    47    48  am
    53    48    49   2
    54    48    50   1
    55    50    51   1
    56    16    52   1
    57    19    53   1
    58    19    54   1
    59    22    55   1
    60    23    56   1
    61    23    57   1
    62    24    58   1
    63    26    59   1
    64    27    60   1
    65    28    61   1
    66    29    62   1
    67    32    63   1
    68    32    64   1
    69    33    65   1
    70    35    66   1
    71    36    67   1
    72    36    68   1
    73    37    69   1
    74    44    70   1
    75    47    71   1
    76    51    72   1
    77    51    73   1
    78    51    74   1
@<TRIPOS>SUBSTRUCTURE
     1  PAX     14

