@<TRIPOS>MOLECULE
1u1b_ligand_016
    74    78
SMALL
GAST_HUCK
****
This file was generated by PARSER (from files_GN.cpp)

@<TRIPOS>ATOM
      1 PA        -32.1989  -32.0095   15.3590 P.3         1 PAX       0.2972
      2 O1A       -31.2020  -31.5499   14.4221 O.co2       1 PAX      -0.6127
      3 O2A       -32.9930  -32.9138   14.5583 O.co2       1 PAX      -0.6127
      4 O5        -31.4950  -32.8021   16.5101 O.3         1 PAX      -0.2476
      5 PB        -32.5148  -29.6072   16.4624 P.3         1 PAX       0.2974
      6 O1B       -33.5546  -28.6045   16.4807 O.co2       1 PAX      -0.6127
      7 O2B       -32.1385  -29.8532   17.8341 O.co2       1 PAX      -0.6127
      8 O3A       -33.1598  -30.8608   15.8057 O.3         1 PAX      -0.1319
      9 PG        -34.0644  -35.9703   14.0025 P.3         1 PAX       0.2013
     10 O1G       -34.9598  -34.8896   13.6634 O.co2       1 PAX      -0.5537
     11 O2G       -32.8247  -35.8148   13.2763 O.co2       1 PAX      -0.5537
     12 O3G       -34.6412  -37.2014   13.5268 O.co2       1 PAX      -0.5537
     13 N9A       -34.9266  -35.9271   19.9186 N.pl3       1 PAX      -0.1919
     14 C4A       -34.3993  -35.4780   21.0749 C.ar        1 PAX       0.1613
     15 N3A       -33.1485  -35.0645   21.4092 N.ar        1 PAX      -0.2714
     16 C2A       -32.8816  -34.6444   22.6779 C.ar        1 PAX       0.0533
     17 N1A       -33.8693  -34.6236   23.6160 N.ar        1 PAX      -0.2698
     18 C6A       -35.1333  -35.0399   23.3354 C.ar        1 PAX       0.1298
     19 N6A       -36.0778  -35.0039   24.2890 N.pl3       1 PAX      -0.3152
     20 C5A       -35.4132  -35.4862   22.0329 C.ar        1 PAX       0.1045
     21 N7A       -36.5331  -35.9572   21.4735 N.2         1 PAX      -0.2958
     22 C8A       -36.2159  -36.2316   20.1967 C.2         1 PAX       0.1123
     23 C5        -32.3153  -33.3553   17.5739 C.3         1 PAX       0.1131
     24 C4        -32.7218  -34.8501   17.3456 C.3         1 PAX       0.1235
     25 O4        -32.9922  -35.4444   18.6257 O.3         1 PAX      -0.3360
     26 C1        -34.2764  -36.0857   18.6442 C.3         1 PAX       0.2013
     27 C2        -35.0690  -35.4719   17.4686 C.3         1 PAX       0.1432
     28 O2        -36.0218  -36.3456   16.8565 O.3         1 PAX      -0.3832
     29 C3        -33.9782  -35.0776   16.4485 C.3         1 PAX       0.1487
     30 O3        -33.7084  -36.1709   15.5085 O.3         1 PAX      -0.2674
     31 O5        -33.0199  -25.3675   15.1461 O.3         1 PAX      -0.2734
     32 C5        -31.6558  -25.4817   14.6571 C.3         1 PAX       0.1074
     33 C4        -31.3202  -26.9811   14.4105 C.3         1 PAX       0.1209
     34 O4        -30.2649  -27.0488   13.4275 O.3         1 PAX      -0.3391
     35 C1        -29.2003  -27.8529   13.9494 C.3         1 PAX       0.1760
     36 C2        -29.3254  -27.7464   15.4853 C.3         1 PAX       0.0362
     37 C3        -30.8488  -27.7497   15.6799 C.3         1 PAX       0.1284
     38 O3        -31.2834  -29.1297   15.6305 O.3         1 PAX      -0.2441
     39 PD        -33.5546  -23.9141   15.2926 P.3         1 PAX       0.2008
     40 O1D       -34.9332  -23.9700   15.7184 O.co2       1 PAX      -0.5537
     41 O2D       -33.5293  -23.2571   13.9991 O.co2       1 PAX      -0.5537
     42 O3D       -32.8117  -23.1184   16.2433 O.co2       1 PAX      -0.5537
     43 N1T       -27.9232  -27.4359   13.3797 N.am        1 PAX      -0.1736
     44 C6T       -27.4311  -26.1906   13.6607 C.2         1 PAX       0.0524
     45 C2T       -27.2351  -28.2108   12.5133 C.2         1 PAX       0.3265
     46 O2T       -27.5688  -29.3454   12.1964 O.2         1 PAX      -0.3843
     47 N3T       -26.1370  -27.7425   11.9257 N.am        1 PAX      -0.1859
     48 C4T       -25.6783  -26.5175   12.1699 C.2         1 PAX       0.1930
     49 O4T       -24.7032  -26.1602   11.5216 O.2         1 PAX      -0.4079
     50 C5T       -26.3099  -25.7015   13.0791 C.2         1 PAX       0.0225
     51 CM5       -25.7865  -24.3798   13.3991 C.3         1 PAX      -0.0437
     52 H1        -31.9412  -34.3404   22.9293 H           1 PAX       0.0996
     53 H2        -36.9826  -35.2946   24.0865 H           1 PAX       0.1820
     54 H3        -35.8617  -34.6832   25.1818 H           1 PAX       0.1820
     55 H4        -36.8954  -36.5986   19.5334 H           1 PAX       0.1349
     56 H5        -33.1973  -32.7431   17.8128 H           1 PAX       0.0648
     57 H6        -31.6672  -33.3144   18.4558 H           1 PAX       0.0648
     58 H7        -31.8506  -35.3714   16.9340 H           1 PAX       0.0654
     59 H8        -34.1253  -37.1487   18.4439 H           1 PAX       0.0996
     60 H9        -35.5809  -34.5590   17.7972 H           1 PAX       0.0680
     61 H10       -36.3340  -36.9463   17.5639 H           1 PAX       0.2101
     62 H11       -34.2566  -34.1252   15.9483 H           1 PAX       0.0704
     63 H12       -30.9481  -25.0589   15.3879 H           1 PAX       0.0639
     64 H13       -31.5230  -24.9435   13.7013 H           1 PAX       0.0639
     65 H14       -32.2033  -27.4666   13.9759 H           1 PAX       0.0653
     66 H15       -29.4401  -28.8881   13.6715 H           1 PAX       0.0959
     67 H16       -28.8968  -26.8124   15.8575 H           1 PAX       0.0348
     68 H17       -28.8483  -28.5915   15.9897 H           1 PAX       0.0348
     69 H18       -31.1106  -27.2459   16.6208 H           1 PAX       0.0686
     70 H19       -27.9242  -25.6103   14.3005 H           1 PAX       0.1011
     71 H20       -25.6718  -28.3038   11.2804 H           1 PAX       0.2259
     72 H21       -26.3613  -23.8742   14.1756 H           1 PAX       0.0296
     73 H22       -25.8000  -23.7533   12.5070 H           1 PAX       0.0296
     74 H23       -24.7608  -24.4730   13.7534 H           1 PAX       0.0296
@<TRIPOS>BOND
     1     1     2  ar
     2     1     3  ar
     3     1     4   1
     4     8     1   1
     5     4    23   1
     6     5     6  ar
     7     5     7  ar
     8     5     8   1
     9    38     5   1
    10     9    10  ar
    11     9    11  ar
    12     9    12  ar
    13    30     9   1
    14    13    14   1
    15    13    22   1
    16    26    13   1
    17    14    15  ar
    18    14    20  ar
    19    15    16  ar
    20    16    17  ar
    21    18    17  ar
    22    18    19   1
    23    20    18  ar
    24    21    20   1
    25    22    21   2
    26    23    24   1
    27    24    25   1
    28    24    29   1
    29    25    26   1
    30    27    26   1
    31    27    28   1
    32    29    27   1
    33    29    30   1
    34    32    31   1
    35    31    39   1
    36    33    32   1
    37    33    34   1
    38    37    33   1
    39    35    34   1
    40    36    35   1
    41    35    43   1
    42    37    36   1
    43    37    38   1
    44    39    40  ar
    45    39    41  ar
    46    39    42  ar
    47    43    44   1
    48    43    45  am
    49    44    50   2
    50    45    46   2
    51    45    47  am
    52    47    48  am
    53    48    49   2
    54    48    50   1
    55    50    51   1
    56    16    52   1
    57    19    53   1
    58    19    54   1
    59    22    55   1
    60    23    56   1
    61    23    57   1
    62    24    58   1
    63    26    59   1
    64    27    60   1
    65    28    61   1
    66    29    62   1
    67    32    63   1
    68    32    64   1
    69    33    65   1
    70    35    66   1
    71    36    67   1
    72    36    68   1
    73    37    69   1
    74    44    70   1
    75    47    71   1
    76    51    72   1
    77    51    73   1
    78    51    74   1
@<TRIPOS>SUBSTRUCTURE
     1  PAX     14

