@<TRIPOS>MOLECULE
1u1b_ligand_090
    74    78
SMALL
GAST_HUCK
****
This file was generated by PARSER (from files_GN.cpp)

@<TRIPOS>ATOM
      1 PA        -33.3309  -27.8902   15.3112 P.3         1 PAX       0.2972
      2 O1A       -32.7919  -26.8357   14.4899 O.co2       1 PAX      -0.6127
      3 O2A       -33.8537  -27.2965   16.5171 O.co2       1 PAX      -0.6127
      4 O5        -34.3850  -28.6671   14.4682 O.3         1 PAX      -0.2476
      5 PB        -32.4492  -30.0716   16.5544 P.3         1 PAX       0.2974
      6 O1B       -32.2733  -29.6212   17.9140 O.co2       1 PAX      -0.6127
      7 O2B       -33.7717  -30.6346   16.4180 O.co2       1 PAX      -0.6127
      8 O3A       -32.1546  -28.8690   15.5994 O.3         1 PAX      -0.1319
      9 PG        -37.6902  -27.3931   11.1370 P.3         1 PAX       0.2013
     10 O1G       -38.1878  -26.1513   11.6692 O.co2       1 PAX      -0.5537
     11 O2G       -36.2496  -27.3815   11.1208 O.co2       1 PAX      -0.5537
     12 O3G       -38.1344  -27.4764    9.7695 O.co2       1 PAX      -0.5537
     13 N9A       -38.1808  -32.1200   14.9357 N.pl3       1 PAX      -0.1919
     14 C4A       -37.4710  -33.2566   15.0684 C.ar        1 PAX       0.1613
     15 N3A       -36.3642  -33.7099   14.4227 N.ar        1 PAX      -0.2714
     16 C2A       -35.8301  -34.9180   14.7527 C.ar        1 PAX       0.0533
     17 N1A       -36.3982  -35.6714   15.7366 N.ar        1 PAX      -0.2698
     18 C6A       -37.5015  -35.2569   16.4136 C.ar        1 PAX       0.1298
     19 N6A       -38.0198  -36.0258   17.3883 N.pl3       1 PAX      -0.3152
     20 C5A       -38.0677  -34.0183   16.0724 C.ar        1 PAX       0.1045
     21 N7A       -39.1391  -33.3581   16.5267 N.2         1 PAX      -0.2958
     22 C8A       -39.1981  -32.2098   15.8235 C.2         1 PAX       0.1123
     23 C5        -35.7366  -28.1796   14.4513 C.3         1 PAX       0.1131
     24 C4        -36.5748  -29.1962   13.6423 C.3         1 PAX       0.1235
     25 O4        -36.6750  -30.4047   14.4021 O.3         1 PAX      -0.3360
     26 C1        -37.8811  -31.0634   14.0074 C.3         1 PAX       0.2013
     27 C2        -38.8777  -29.8888   13.8994 C.3         1 PAX       0.1432
     28 O2        -40.0190  -30.2392   13.1172 O.3         1 PAX      -0.3832
     29 C3        -38.0261  -28.7392   13.3117 C.3         1 PAX       0.1487
     30 O3        -38.2793  -28.6282   11.8886 O.3         1 PAX      -0.2674
     31 O5        -33.9728  -34.0359   17.8823 O.3         1 PAX      -0.2734
     32 C5        -32.6742  -34.4728   17.4296 C.3         1 PAX       0.1074
     33 C4        -31.6094  -33.3409   17.3639 C.3         1 PAX       0.1209
     34 O4        -30.3052  -33.9420   17.4136 O.3         1 PAX      -0.3391
     35 C1        -29.5549  -33.6496   16.2194 C.3         1 PAX       0.1760
     36 C2        -30.6258  -33.1880   15.2011 C.3         1 PAX       0.0362
     37 C3        -31.6866  -32.4978   16.0639 C.3         1 PAX       0.1284
     38 O3        -31.3198  -31.1085   16.2360 O.3         1 PAX      -0.2441
     39 PD        -34.2252  -33.9299   19.4170 P.3         1 PAX       0.2008
     40 O1D       -35.5633  -34.4033   19.6723 O.co2       1 PAX      -0.5537
     41 O2D       -34.1500  -32.5751   19.9091 O.co2       1 PAX      -0.5537
     42 O3D       -33.3205  -34.7406   20.1896 O.co2       1 PAX      -0.5537
     43 N1T       -28.6722  -34.7733   15.9040 N.am        1 PAX      -0.1736
     44 C6T       -28.7716  -35.4859   14.7357 C.2         1 PAX       0.0524
     45 C2T       -27.7112  -35.1427   16.7835 C.2         1 PAX       0.3265
     46 O2T       -27.4790  -34.5415   17.8256 O.2         1 PAX      -0.3843
     47 N3T       -26.9732  -36.2253   16.5572 N.am        1 PAX      -0.1859
     48 C4T       -27.1376  -36.9665   15.4672 C.2         1 PAX       0.1930
     49 O4T       -26.4560  -37.9775   15.3722 O.2         1 PAX      -0.4079
     50 C5T       -28.0297  -36.5909   14.4919 C.2         1 PAX       0.0225
     51 CM5       -28.1425  -37.3418   13.2442 C.3         1 PAX      -0.0437
     52 H1        -35.0031  -35.2611   14.2670 H           1 PAX       0.0996
     53 H2        -38.8000  -35.7277   17.8811 H           1 PAX       0.1820
     54 H3        -37.6108  -36.8802   17.6049 H           1 PAX       0.1820
     55 H4        -39.9359  -31.5144   15.9580 H           1 PAX       0.1349
     56 H5        -35.7915  -27.1943   13.9778 H           1 PAX       0.0648
     57 H6        -36.1417  -28.1159   15.4642 H           1 PAX       0.0648
     58 H7        -36.0374  -29.4299   12.7157 H           1 PAX       0.0654
     59 H8        -37.7382  -31.5144   13.0193 H           1 PAX       0.0996
     60 H9        -39.2172  -29.6033   14.8972 H           1 PAX       0.0680
     61 H10       -40.5945  -29.4447   13.1246 H           1 PAX       0.2101
     62 H11       -38.2954  -27.8130   13.8340 H           1 PAX       0.0704
     63 H12       -32.8145  -34.8774   16.4251 H           1 PAX       0.0639
     64 H13       -32.2991  -35.3072   18.0280 H           1 PAX       0.0639
     65 H14       -31.6996  -32.7098   18.2526 H           1 PAX       0.0653
     66 H15       -28.9206  -32.7832   16.4373 H           1 PAX       0.0959
     67 H16       -31.0929  -34.0435   14.7053 H           1 PAX       0.0348
     68 H17       -30.2098  -32.5177   14.4454 H           1 PAX       0.0348
     69 H18       -32.6564  -32.5883   15.5607 H           1 PAX       0.0686
     70 H19       -29.3805  -35.1756   14.0177 H           1 PAX       0.1011
     71 H20       -26.3133  -36.4909   17.2129 H           1 PAX       0.2259
     72 H21       -28.8831  -36.9175   12.5629 H           1 PAX       0.0296
     73 H22       -28.4358  -38.3722   13.4568 H           1 PAX       0.0296
     74 H23       -27.1796  -37.3478   12.7284 H           1 PAX       0.0296
@<TRIPOS>BOND
     1     1     2  ar
     2     1     3  ar
     3     1     4   1
     4     8     1   1
     5     4    23   1
     6     5     6  ar
     7     5     7  ar
     8     5     8   1
     9    38     5   1
    10     9    10  ar
    11     9    11  ar
    12     9    12  ar
    13    30     9   1
    14    13    14   1
    15    13    22   1
    16    26    13   1
    17    14    15  ar
    18    14    20  ar
    19    15    16  ar
    20    16    17  ar
    21    18    17  ar
    22    18    19   1
    23    20    18  ar
    24    21    20   1
    25    22    21   2
    26    23    24   1
    27    24    25   1
    28    24    29   1
    29    25    26   1
    30    27    26   1
    31    27    28   1
    32    29    27   1
    33    29    30   1
    34    32    31   1
    35    31    39   1
    36    33    32   1
    37    33    34   1
    38    37    33   1
    39    35    34   1
    40    36    35   1
    41    35    43   1
    42    37    36   1
    43    37    38   1
    44    39    40  ar
    45    39    41  ar
    46    39    42  ar
    47    43    44   1
    48    43    45  am
    49    44    50   2
    50    45    46   2
    51    45    47  am
    52    47    48  am
    53    48    49   2
    54    48    50   1
    55    50    51   1
    56    16    52   1
    57    19    53   1
    58    19    54   1
    59    22    55   1
    60    23    56   1
    61    23    57   1
    62    24    58   1
    63    26    59   1
    64    27    60   1
    65    28    61   1
    66    29    62   1
    67    32    63   1
    68    32    64   1
    69    33    65   1
    70    35    66   1
    71    36    67   1
    72    36    68   1
    73    37    69   1
    74    44    70   1
    75    47    71   1
    76    51    72   1
    77    51    73   1
    78    51    74   1
@<TRIPOS>SUBSTRUCTURE
     1  PAX     14

