@<TRIPOS>MOLECULE
1u1b_ligand_051
    74    78
SMALL
GAST_HUCK
****
This file was generated by PARSER (from files_GN.cpp)

@<TRIPOS>ATOM
      1 PA        -31.9002  -34.0075   14.7156 P.3         1 PAX       0.2972
      2 O1A       -31.3289  -32.7737   15.1898 O.co2       1 PAX      -0.6127
      3 O2A       -31.6734  -34.0351   13.2928 O.co2       1 PAX      -0.6127
      4 O5        -31.2750  -35.2887   15.3580 O.3         1 PAX      -0.2476
      5 PB        -34.3063  -35.1569   14.6119 P.3         1 PAX       0.2974
      6 O1B       -34.6222  -35.0813   13.2089 O.co2       1 PAX      -0.6127
      7 O2B       -33.6446  -36.4086   14.8842 O.co2       1 PAX      -0.6127
      8 O3A       -33.4279  -33.9344   15.0276 O.3         1 PAX      -0.1319
      9 PG        -26.9113  -37.1742   14.5288 P.3         1 PAX       0.2013
     10 O1G       -26.1806  -38.1579   15.2855 O.co2       1 PAX      -0.5537
     11 O2G       -28.2794  -37.6139   14.4283 O.co2       1 PAX      -0.5537
     12 O3G       -26.3295  -37.1335   13.2122 O.co2       1 PAX      -0.5537
     13 N9A       -27.2680  -31.9533   17.4622 N.pl3       1 PAX      -0.1919
     14 C4A       -28.2432  -31.1082   17.8482 C.ar        1 PAX       0.1613
     15 N3A       -29.5554  -31.0216   17.5081 N.ar        1 PAX      -0.2714
     16 C2A       -30.3374  -30.0439   18.0402 C.ar        1 PAX       0.0533
     17 N1A       -29.8109  -29.1579   18.9305 N.ar        1 PAX      -0.2698
     18 C6A       -28.5046  -29.2091   19.3097 C.ar        1 PAX       0.1298
     19 N6A       -28.0322  -28.3350   20.2114 N.pl3       1 PAX      -0.3152
     20 C5A       -27.6840  -30.1990   18.7431 C.ar        1 PAX       0.1045
     21 N7A       -26.3782  -30.4656   18.8690 N.2         1 PAX      -0.2958
     22 C8A       -26.1402  -31.5325   18.0826 C.2         1 PAX       0.1123
     23 C5        -30.2311  -35.1938   16.3449 C.3         1 PAX       0.1131
     24 C4        -28.8753  -34.6909   15.7629 C.3         1 PAX       0.1235
     25 O4        -28.6957  -33.2967   16.0695 O.3         1 PAX      -0.3360
     26 C1        -27.3640  -33.0762   16.5639 C.3         1 PAX       0.2013
     27 C2        -26.9820  -34.4138   17.2241 C.3         1 PAX       0.1432
     28 O2        -25.5735  -34.5959   17.3632 O.3         1 PAX      -0.3832
     29 C3        -27.6241  -35.4510   16.2924 C.3         1 PAX       0.1487
     30 O3        -26.7260  -35.7788   15.2033 O.3         1 PAX      -0.2674
     31 O5        -35.6801  -38.6801   13.9411 O.3         1 PAX      -0.2734
     32 C5        -37.0485  -38.2759   14.1698 C.3         1 PAX       0.1074
     33 C4        -37.1764  -36.7408   14.3615 C.3         1 PAX       0.1209
     34 O4        -38.5752  -36.4290   14.4720 O.3         1 PAX      -0.3391
     35 C1        -38.7847  -35.5308   15.5716 C.3         1 PAX       0.1760
     36 C2        -37.6292  -35.8318   16.5436 C.3         1 PAX       0.0362
     37 C3        -36.4535  -36.2038   15.6323 C.3         1 PAX       0.1284
     38 O3        -35.6380  -35.0245   15.4187 O.3         1 PAX      -0.2441
     39 PD        -35.1680  -38.7285   12.4735 P.3         1 PAX       0.2008
     40 O1D       -33.8723  -39.3583   12.4775 O.co2       1 PAX      -0.5537
     41 O2D       -35.0328  -37.4221   11.8838 O.co2       1 PAX      -0.5537
     42 O3D       -36.0311  -39.5535   11.6670 O.co2       1 PAX      -0.5537
     43 N1T       -40.0806  -35.6146   16.2373 N.am        1 PAX      -0.1736
     44 C6T       -40.4698  -34.5675   17.0314 C.2         1 PAX       0.0524
     45 C2T       -40.9078  -36.6779   16.1435 C.2         1 PAX       0.3265
     46 O2T       -40.6645  -37.6900   15.5011 O.2         1 PAX      -0.3843
     47 N3T       -42.0683  -36.6821   16.7927 N.am        1 PAX      -0.1859
     48 C4T       -42.4514  -35.6616   17.5524 C.2         1 PAX       0.1930
     49 O4T       -43.5391  -35.7575   18.1047 O.2         1 PAX      -0.4079
     50 C5T       -41.6435  -34.5601   17.7062 C.2         1 PAX       0.0225
     51 CM5       -42.0374  -33.4440   18.5629 C.3         1 PAX      -0.0437
     52 H1        -31.3206  -29.9781   17.7760 H           1 PAX       0.0996
     53 H2        -27.1232  -28.4077   20.5436 H           1 PAX       0.1820
     54 H3        -28.5991  -27.6221   20.5391 H           1 PAX       0.1820
     55 H4        -25.2165  -31.9561   17.9768 H           1 PAX       0.1349
     56 H5        -30.1125  -36.2170   16.7066 H           1 PAX       0.0648
     57 H6        -30.5349  -34.5918   17.2074 H           1 PAX       0.0648
     58 H7        -28.9198  -34.7768   14.6730 H           1 PAX       0.0654
     59 H8        -26.7099  -32.8910   15.7052 H           1 PAX       0.0996
     60 H9        -27.4430  -34.4763   18.2162 H           1 PAX       0.0680
     61 H10       -25.4658  -35.5008   17.7282 H           1 PAX       0.2101
     62 H11       -27.8663  -36.3308   16.8987 H           1 PAX       0.0704
     63 H12       -37.3597  -38.7596   15.0978 H           1 PAX       0.0639
     64 H13       -37.7520  -38.6109   13.3972 H           1 PAX       0.0639
     65 H14       -36.8004  -36.2448   13.4631 H           1 PAX       0.0653
     66 H15       -38.6619  -34.5211   15.1610 H           1 PAX       0.0959
     67 H16       -37.8926  -36.6839   17.1770 H           1 PAX       0.0348
     68 H17       -37.4000  -34.9748   17.1818 H           1 PAX       0.0348
     69 H18       -35.8741  -36.9782   16.1496 H           1 PAX       0.0686
     70 H19       -39.8668  -33.7807   17.1237 H           1 PAX       0.1011
     71 H20       -42.6501  -37.4560   16.7142 H           1 PAX       0.2259
     72 H21       -41.2856  -32.6526   18.6018 H           1 PAX       0.0296
     73 H22       -42.1997  -33.7986   19.5832 H           1 PAX       0.0296
     74 H23       -42.9657  -33.0057   18.1910 H           1 PAX       0.0296
@<TRIPOS>BOND
     1     1     2  ar
     2     1     3  ar
     3     1     4   1
     4     8     1   1
     5     4    23   1
     6     5     6  ar
     7     5     7  ar
     8     5     8   1
     9    38     5   1
    10     9    10  ar
    11     9    11  ar
    12     9    12  ar
    13    30     9   1
    14    13    14   1
    15    13    22   1
    16    26    13   1
    17    14    15  ar
    18    14    20  ar
    19    15    16  ar
    20    16    17  ar
    21    18    17  ar
    22    18    19   1
    23    20    18  ar
    24    21    20   1
    25    22    21   2
    26    23    24   1
    27    24    25   1
    28    24    29   1
    29    25    26   1
    30    27    26   1
    31    27    28   1
    32    29    27   1
    33    29    30   1
    34    32    31   1
    35    31    39   1
    36    33    32   1
    37    33    34   1
    38    37    33   1
    39    35    34   1
    40    36    35   1
    41    35    43   1
    42    37    36   1
    43    37    38   1
    44    39    40  ar
    45    39    41  ar
    46    39    42  ar
    47    43    44   1
    48    43    45  am
    49    44    50   2
    50    45    46   2
    51    45    47  am
    52    47    48  am
    53    48    49   2
    54    48    50   1
    55    50    51   1
    56    16    52   1
    57    19    53   1
    58    19    54   1
    59    22    55   1
    60    23    56   1
    61    23    57   1
    62    24    58   1
    63    26    59   1
    64    27    60   1
    65    28    61   1
    66    29    62   1
    67    32    63   1
    68    32    64   1
    69    33    65   1
    70    35    66   1
    71    36    67   1
    72    36    68   1
    73    37    69   1
    74    44    70   1
    75    47    71   1
    76    51    72   1
    77    51    73   1
    78    51    74   1
@<TRIPOS>SUBSTRUCTURE
     1  PAX     14

