@<TRIPOS>MOLECULE
1u1b_ligand_065
    74    78
SMALL
GAST_HUCK
****
This file was generated by PARSER (from files_GN.cpp)

@<TRIPOS>ATOM
      1 PA        -29.7377  -31.8250   18.3497 P.3         1 PAX       0.2972
      2 O1A       -30.1306  -30.7952   17.4003 O.co2       1 PAX      -0.6127
      3 O2A       -30.0334  -31.2087   19.6307 O.co2       1 PAX      -0.6127
      4 O5        -30.5014  -33.1753   18.2404 O.3         1 PAX      -0.2476
      5 PB        -27.5438  -32.2839   16.9301 P.3         1 PAX       0.2974
      6 O1B       -27.9465  -31.4441   15.8131 O.co2       1 PAX      -0.6127
      7 O2B       -26.2488  -31.6773   17.1821 O.co2       1 PAX      -0.6127
      8 O3A       -28.1975  -32.0388   18.3234 O.3         1 PAX      -0.1319
      9 PG        -33.8895  -35.8566   13.9403 P.3         1 PAX       0.2013
     10 O1G       -33.5592  -34.7034   13.1347 O.co2       1 PAX      -0.5537
     11 O2G       -33.3883  -37.0104   13.2297 O.co2       1 PAX      -0.5537
     12 O3G       -35.3227  -36.0119   14.0202 O.co2       1 PAX      -0.5537
     13 N9A       -34.7562  -35.5785   19.5638 N.pl3       1 PAX      -0.1919
     14 C4A       -34.3269  -35.2211   20.7873 C.ar        1 PAX       0.1613
     15 N3A       -33.0992  -34.8630   21.2512 N.ar        1 PAX      -0.2714
     16 C2A       -32.9304  -34.5501   22.5641 C.ar        1 PAX       0.0533
     17 N1A       -33.9890  -34.5801   23.4213 N.ar        1 PAX      -0.2698
     18 C6A       -35.2337  -34.9417   23.0083 C.ar        1 PAX       0.1298
     19 N6A       -36.2527  -34.9592   23.8845 N.pl3       1 PAX      -0.3152
     20 C5A       -35.4132  -35.2850   21.6577 C.ar        1 PAX       0.1045
     21 N7A       -36.4830  -35.7059   20.9743 N.2         1 PAX      -0.2958
     22 C8A       -36.0665  -35.8936   19.7099 C.2         1 PAX       0.1123
     23 C5        -31.6848  -33.1762   17.4229 C.3         1 PAX       0.1131
     24 C4        -32.2124  -34.6194   17.2096 C.3         1 PAX       0.1235
     25 O4        -32.6599  -35.1651   18.4673 O.3         1 PAX      -0.3360
     26 C1        -34.0043  -35.6624   18.3352 C.3         1 PAX       0.2013
     27 C2        -34.5968  -34.8472   17.1684 C.3         1 PAX       0.1432
     28 O2        -35.7216  -35.4645   16.5484 O.3         1 PAX      -0.3832
     29 C3        -33.4015  -34.6953   16.2100 C.3         1 PAX       0.1487
     30 O3        -33.1917  -35.8364   15.3282 O.3         1 PAX      -0.2674
     31 O5        -26.0903  -38.0959   15.3520 O.3         1 PAX      -0.2734
     32 C5        -27.1686  -37.2191   15.7661 C.3         1 PAX       0.1074
     33 C4        -27.1444  -35.7601   15.2276 C.3         1 PAX       0.1209
     34 O4        -27.6311  -35.7885   13.8743 O.3         1 PAX      -0.3391
     35 C1        -28.3370  -34.5705   13.6332 C.3         1 PAX       0.1760
     36 C2        -29.0388  -34.2727   14.9688 C.3         1 PAX       0.0362
     37 C3        -27.9968  -34.7135   16.0223 C.3         1 PAX       0.1284
     38 O3        -27.0811  -33.6986   16.4930 O.3         1 PAX      -0.2441
     39 PD        -25.4212  -37.9561   13.9533 P.3         1 PAX       0.2008
     40 O1D       -24.3812  -38.9574   13.7938 O.co2       1 PAX      -0.5537
     41 O2D       -24.6933  -36.7160   13.8267 O.co2       1 PAX      -0.5537
     42 O3D       -26.3255  -38.0559   12.8231 O.co2       1 PAX      -0.5537
     43 N1T       -29.2282  -34.6737   12.4853 N.am        1 PAX      -0.1736
     44 C6T       -29.1937  -33.7169   11.5037 C.2         1 PAX       0.0524
     45 C2T       -30.0925  -35.7000   12.3332 C.2         1 PAX       0.3265
     46 O2T       -30.1830  -36.6311   13.1219 O.2         1 PAX      -0.3843
     47 N3T       -30.9011  -35.7467   11.2771 N.am        1 PAX      -0.1859
     48 C4T       -30.8851  -34.8034   10.3396 C.2         1 PAX       0.1930
     49 O4T       -31.6714  -34.9270    9.4113 O.2         1 PAX      -0.4079
     50 C5T       -30.0031  -33.7490   10.4215 C.2         1 PAX       0.0225
     51 CM5       -29.9476  -32.7185    9.3866 C.3         1 PAX      -0.0437
     52 H1        -32.0063  -34.2904   22.9117 H           1 PAX       0.0996
     53 H2        -37.1441  -35.2098   23.5931 H           1 PAX       0.1820
     54 H3        -36.1001  -34.7107   24.8112 H           1 PAX       0.1820
     55 H4        -36.6825  -36.2344   18.9724 H           1 PAX       0.1349
     56 H5        -31.4479  -32.7544   16.4452 H           1 PAX       0.0648
     57 H6        -32.4718  -32.5770   17.8873 H           1 PAX       0.0648
     58 H7        -31.3822  -35.2372   16.8501 H           1 PAX       0.0654
     59 H8        -33.9408  -36.7162   18.0425 H           1 PAX       0.0996
     60 H9        -34.8975  -33.8574   17.5285 H           1 PAX       0.0680
     61 H10       -36.4910  -35.2315   17.1084 H           1 PAX       0.2101
     62 H11       -33.5035  -33.7597   15.6461 H           1 PAX       0.0704
     63 H12       -27.0858  -37.1760   16.8543 H           1 PAX       0.0639
     64 H13       -28.1299  -37.6849   15.5294 H           1 PAX       0.0639
     65 H14       -26.0990  -35.4368   15.1939 H           1 PAX       0.0653
     66 H15       -27.5795  -33.7914   13.4756 H           1 PAX       0.0959
     67 H16       -29.9409  -34.8861   15.0769 H           1 PAX       0.0348
     68 H17       -29.3246  -33.2227   15.0327 H           1 PAX       0.0348
     69 H18       -28.5045  -35.1713   16.8755 H           1 PAX       0.0686
     70 H19       -28.5486  -32.9624   11.5854 H           1 PAX       0.1011
     71 H20       -31.5228  -36.4930   11.1854 H           1 PAX       0.2259
     72 H21       -29.1798  -31.9697    9.5820 H           1 PAX       0.0296
     73 H22       -30.9080  -32.2072    9.3261 H           1 PAX       0.0296
     74 H23       -29.7301  -33.1751    8.4210 H           1 PAX       0.0296
@<TRIPOS>BOND
     1     1     2  ar
     2     1     3  ar
     3     1     4   1
     4     8     1   1
     5     4    23   1
     6     5     6  ar
     7     5     7  ar
     8     5     8   1
     9    38     5   1
    10     9    10  ar
    11     9    11  ar
    12     9    12  ar
    13    30     9   1
    14    13    14   1
    15    13    22   1
    16    26    13   1
    17    14    15  ar
    18    14    20  ar
    19    15    16  ar
    20    16    17  ar
    21    18    17  ar
    22    18    19   1
    23    20    18  ar
    24    21    20   1
    25    22    21   2
    26    23    24   1
    27    24    25   1
    28    24    29   1
    29    25    26   1
    30    27    26   1
    31    27    28   1
    32    29    27   1
    33    29    30   1
    34    32    31   1
    35    31    39   1
    36    33    32   1
    37    33    34   1
    38    37    33   1
    39    35    34   1
    40    36    35   1
    41    35    43   1
    42    37    36   1
    43    37    38   1
    44    39    40  ar
    45    39    41  ar
    46    39    42  ar
    47    43    44   1
    48    43    45  am
    49    44    50   2
    50    45    46   2
    51    45    47  am
    52    47    48  am
    53    48    49   2
    54    48    50   1
    55    50    51   1
    56    16    52   1
    57    19    53   1
    58    19    54   1
    59    22    55   1
    60    23    56   1
    61    23    57   1
    62    24    58   1
    63    26    59   1
    64    27    60   1
    65    28    61   1
    66    29    62   1
    67    32    63   1
    68    32    64   1
    69    33    65   1
    70    35    66   1
    71    36    67   1
    72    36    68   1
    73    37    69   1
    74    44    70   1
    75    47    71   1
    76    51    72   1
    77    51    73   1
    78    51    74   1
@<TRIPOS>SUBSTRUCTURE
     1  PAX     14

