@<TRIPOS>MOLECULE
1u1b_ligand_061
    74    78
SMALL
GAST_HUCK
****
This file was generated by PARSER (from files_GN.cpp)

@<TRIPOS>ATOM
      1 PA        -32.1013  -34.2559   14.0018 P.3         1 PAX       0.2972
      2 O1A       -32.4181  -35.6328   14.2863 O.co2       1 PAX      -0.6127
      3 O2A       -32.9280  -33.3919   14.8070 O.co2       1 PAX      -0.6127
      4 O5        -30.5995  -33.9568   14.2828 O.3         1 PAX      -0.2476
      5 PB        -33.3523  -33.3005   11.8125 P.3         1 PAX       0.2974
      6 O1B       -33.2199  -33.5061   10.3918 O.co2       1 PAX      -0.6127
      7 O2B       -34.6388  -33.8457   12.1707 O.co2       1 PAX      -0.6127
      8 O3A       -32.1729  -34.0826   12.4566 O.3         1 PAX      -0.1319
      9 PG        -26.8575  -37.1914   14.5358 P.3         1 PAX       0.2013
     10 O1G       -26.1808  -38.2259   15.2762 O.co2       1 PAX      -0.5537
     11 O2G       -28.2505  -37.5563   14.4469 O.co2       1 PAX      -0.5537
     12 O3G       -26.2887  -37.1771   13.2113 O.co2       1 PAX      -0.5537
     13 N9A       -26.9059  -31.8832   17.5124 N.pl3       1 PAX      -0.1919
     14 C4A       -27.9276  -31.4178   18.2512 C.ar        1 PAX       0.1613
     15 N3A       -29.2482  -31.7316   18.2343 N.ar        1 PAX      -0.2714
     16 C2A       -30.0899  -31.1384   19.1172 C.ar        1 PAX       0.0533
     17 N1A       -29.6090  -30.2358   20.0177 N.ar        1 PAX      -0.2698
     18 C6A       -28.2950  -29.8829   20.0675 C.ar        1 PAX       0.1298
     19 N6A       -27.8781  -28.9927   20.9819 N.pl3       1 PAX      -0.3152
     20 C5A       -27.4129  -30.4958   19.1582 C.ar        1 PAX       0.1045
     21 N7A       -26.0907  -30.4098   18.9704 N.2         1 PAX      -0.2958
     22 C8A       -25.7937  -31.2658   17.9717 C.2         1 PAX       0.1123
     23 C5        -29.9182  -34.6563   15.3414 C.3         1 PAX       0.1131
     24 C4        -28.4146  -34.2670   15.3120 C.3         1 PAX       0.1235
     25 O4        -28.2432  -32.9504   15.8568 O.3         1 PAX      -0.3360
     26 C1        -26.9672  -32.9130   16.5119 C.3         1 PAX       0.2013
     27 C2        -26.7985  -34.3173   17.1227 C.3         1 PAX       0.1432
     28 O2        -25.4240  -34.6295   17.3525 O.3         1 PAX      -0.3832
     29 C3        -27.4935  -35.2402   16.1042 C.3         1 PAX       0.1487
     30 O3        -26.5132  -35.8364   15.2237 O.3         1 PAX      -0.2674
     31 O5        -31.2909  -30.2092   15.9188 O.3         1 PAX      -0.2734
     32 C5        -30.9965  -30.2242   14.5022 C.3         1 PAX       0.1074
     33 C4        -32.2579  -30.2781   13.5903 C.3         1 PAX       0.1209
     34 O4        -32.6551  -28.9383   13.2495 O.3         1 PAX      -0.3391
     35 C1        -32.6730  -28.7563   11.8219 C.3         1 PAX       0.1760
     36 C2        -31.8948  -29.9505   11.2367 C.3         1 PAX       0.0362
     37 C3        -32.1151  -31.0685   12.2622 C.3         1 PAX       0.1284
     38 O3        -33.3673  -31.7589   12.0253 O.3         1 PAX      -0.2441
     39 PD        -31.8701  -28.9121   16.5541 P.3         1 PAX       0.2008
     40 O1D       -32.0203  -29.1375   17.9711 O.co2       1 PAX      -0.5537
     41 O2D       -33.1866  -28.5811   16.0695 O.co2       1 PAX      -0.5537
     42 O3D       -30.9840  -27.7849   16.4050 O.co2       1 PAX      -0.5537
     43 N1T       -32.1466  -27.4804   11.3528 N.am        1 PAX      -0.1736
     44 C6T       -31.3763  -26.6898   12.1633 C.2         1 PAX       0.0524
     45 C2T       -32.3611  -27.0686   10.0836 C.2         1 PAX       0.3265
     46 O2T       -33.0320  -27.6970    9.2748 O.2         1 PAX      -0.3843
     47 N3T       -31.8240  -25.9346    9.6463 N.am        1 PAX      -0.1859
     48 C4T       -31.0659  -25.1726   10.4283 C.2         1 PAX       0.1930
     49 O4T       -30.6012  -24.1566    9.9333 O.2         1 PAX      -0.4079
     50 C5T       -30.8226  -25.5316   11.7336 C.2         1 PAX       0.0225
     51 CM5       -30.0079  -24.6925   12.6059 C.3         1 PAX      -0.0437
     52 H1        -31.0822  -31.3765   19.1122 H           1 PAX       0.0996
     53 H2        -26.9397  -28.7502   21.0596 H           1 PAX       0.1820
     54 H3        -28.5205  -28.5943   21.5919 H           1 PAX       0.1820
     55 H4        -24.8462  -31.4410   17.6320 H           1 PAX       0.1349
     56 H5        -30.0012  -35.7310   15.1712 H           1 PAX       0.0648
     57 H6        -30.3389  -34.4155   16.3222 H           1 PAX       0.0648
     58 H7        -28.0856  -34.2248   14.2725 H           1 PAX       0.0654
     59 H8        -26.1994  -32.7380   15.7507 H           1 PAX       0.0996
     60 H9        -27.3282  -34.3738   18.0803 H           1 PAX       0.0680
     61 H10       -25.4222  -35.5472   17.6988 H           1 PAX       0.2101
     62 H11       -28.0577  -35.9917   16.6718 H           1 PAX       0.0704
     63 H12       -30.4090  -31.1287   14.3482 H           1 PAX       0.0639
     64 H13       -30.3486  -29.3899   14.2148 H           1 PAX       0.0639
     65 H14       -33.0657  -30.7182   14.1831 H           1 PAX       0.0653
     66 H15       -33.7272  -28.8418   11.5392 H           1 PAX       0.0959
     67 H16       -30.8288  -29.7067   11.1708 H           1 PAX       0.0348
     68 H17       -32.2567  -30.2289   10.2458 H           1 PAX       0.0348
     69 H18       -31.2297  -31.7132   12.2668 H           1 PAX       0.0686
     70 H19       -31.1973  -26.9752   13.0974 H           1 PAX       0.1011
     71 H20       -31.9808  -25.6580    8.7299 H           1 PAX       0.2259
     72 H21       -29.9081  -25.0985   13.6157 H           1 PAX       0.0296
     73 H22       -30.4600  -23.7017   12.6870 H           1 PAX       0.0296
     74 H23       -29.0053  -24.5869   12.1859 H           1 PAX       0.0296
@<TRIPOS>BOND
     1     1     2  ar
     2     1     3  ar
     3     1     4   1
     4     8     1   1
     5     4    23   1
     6     5     6  ar
     7     5     7  ar
     8     5     8   1
     9    38     5   1
    10     9    10  ar
    11     9    11  ar
    12     9    12  ar
    13    30     9   1
    14    13    14   1
    15    13    22   1
    16    26    13   1
    17    14    15  ar
    18    14    20  ar
    19    15    16  ar
    20    16    17  ar
    21    18    17  ar
    22    18    19   1
    23    20    18  ar
    24    21    20   1
    25    22    21   2
    26    23    24   1
    27    24    25   1
    28    24    29   1
    29    25    26   1
    30    27    26   1
    31    27    28   1
    32    29    27   1
    33    29    30   1
    34    32    31   1
    35    31    39   1
    36    33    32   1
    37    33    34   1
    38    37    33   1
    39    35    34   1
    40    36    35   1
    41    35    43   1
    42    37    36   1
    43    37    38   1
    44    39    40  ar
    45    39    41  ar
    46    39    42  ar
    47    43    44   1
    48    43    45  am
    49    44    50   2
    50    45    46   2
    51    45    47  am
    52    47    48  am
    53    48    49   2
    54    48    50   1
    55    50    51   1
    56    16    52   1
    57    19    53   1
    58    19    54   1
    59    22    55   1
    60    23    56   1
    61    23    57   1
    62    24    58   1
    63    26    59   1
    64    27    60   1
    65    28    61   1
    66    29    62   1
    67    32    63   1
    68    32    64   1
    69    33    65   1
    70    35    66   1
    71    36    67   1
    72    36    68   1
    73    37    69   1
    74    44    70   1
    75    47    71   1
    76    51    72   1
    77    51    73   1
    78    51    74   1
@<TRIPOS>SUBSTRUCTURE
     1  PAX     14

