@<TRIPOS>MOLECULE
1u1b_ligand_057
    74    78
SMALL
GAST_HUCK
****
This file was generated by PARSER (from files_GN.cpp)

@<TRIPOS>ATOM
      1 PA        -31.5798  -31.2435   16.8742 P.3         1 PAX       0.2972
      2 O1A       -32.3927  -32.4365   16.9200 O.co2       1 PAX      -0.6127
      3 O2A       -31.8564  -30.4699   18.0639 O.co2       1 PAX      -0.6127
      4 O5        -30.0689  -31.6015   16.7112 O.3         1 PAX      -0.2476
      5 PB        -31.6572  -30.7297   14.2520 P.3         1 PAX       0.2974
      6 O1B       -30.5160  -31.5826   14.0290 O.co2       1 PAX      -0.6127
      7 O2B       -32.7974  -31.4287   13.7165 O.co2       1 PAX      -0.6127
      8 O3A       -32.0025  -30.3046   15.7090 O.3         1 PAX      -0.1319
      9 PG        -25.4516  -31.7284   18.3639 P.3         1 PAX       0.2013
     10 O1G       -25.3513  -31.5028   16.9402 O.co2       1 PAX      -0.5537
     11 O2G       -24.1043  -31.7492   18.8915 O.co2       1 PAX      -0.5537
     12 O3G       -26.0134  -33.0289   18.6436 O.co2       1 PAX      -0.5537
     13 N9A       -30.0100  -28.0836   20.4691 N.pl3       1 PAX      -0.1919
     14 C4A       -30.9927  -27.3342   19.9329 C.ar        1 PAX       0.1613
     15 N3A       -31.2776  -27.0012   18.6455 N.ar        1 PAX      -0.2714
     16 C2A       -32.3586  -26.2190   18.3714 C.ar        1 PAX       0.0533
     17 N1A       -33.1577  -25.7714   19.3795 N.ar        1 PAX      -0.2698
     18 C6A       -32.9122  -26.0832   20.6804 C.ar        1 PAX       0.1298
     19 N6A       -33.7235  -25.6433   21.6536 N.pl3       1 PAX      -0.3152
     20 C5A       -31.7991  -26.8840   20.9728 C.ar        1 PAX       0.1045
     21 N7A       -31.3098  -27.3556   22.1262 N.2         1 PAX      -0.2958
     22 C8A       -30.2191  -28.0691   21.8099 C.2         1 PAX       0.1123
     23 C5        -29.2472  -31.8602   17.8687 C.3         1 PAX       0.1131
     24 C4        -28.5725  -30.5453   18.3247 C.3         1 PAX       0.1235
     25 O4        -29.5925  -29.6675   18.8076 O.3         1 PAX      -0.3360
     26 C1        -28.9802  -28.7352   19.7019 C.3         1 PAX       0.2013
     27 C2        -27.9406  -29.5798   20.4679 C.3         1 PAX       0.1432
     28 O2        -26.8508  -28.7595   20.8983 O.3         1 PAX      -0.3832
     29 C3        -27.5385  -30.7024   19.4813 C.3         1 PAX       0.1487
     30 O3        -26.1566  -30.5432   19.0828 O.3         1 PAX      -0.2674
     31 O5        -30.3683  -25.2143   14.3486 O.3         1 PAX      -0.2734
     32 C5        -31.5215  -25.7990   13.7125 C.3         1 PAX       0.1074
     33 C4        -31.1063  -27.0949   12.9652 C.3         1 PAX       0.1209
     34 O4        -29.9645  -26.8045   12.1416 O.3         1 PAX      -0.3391
     35 C1        -28.9617  -27.8090   12.3581 C.3         1 PAX       0.1760
     36 C2        -29.2352  -28.4012   13.7533 C.3         1 PAX       0.0362
     37 C3        -30.7700  -28.3123   13.8750 C.3         1 PAX       0.1284
     38 O3        -31.5033  -29.4601   13.3636 O.3         1 PAX      -0.2441
     39 PD        -30.5907  -23.8472   15.0606 P.3         1 PAX       0.2008
     40 O1D       -31.4690  -23.9856   16.1974 O.co2       1 PAX      -0.5537
     41 O2D       -31.0617  -22.8080   14.1804 O.co2       1 PAX      -0.5537
     42 O3D       -29.3085  -23.4129   15.5654 O.co2       1 PAX      -0.5537
     43 N1T       -27.6224  -27.2491   12.2005 N.am        1 PAX      -0.1736
     44 C6T       -27.2521  -26.1650   12.9500 C.2         1 PAX       0.0524
     45 C2T       -26.7287  -27.7471   11.3238 C.2         1 PAX       0.3265
     46 O2T       -26.9400  -28.7275   10.6179 O.2         1 PAX      -0.3843
     47 N3T       -25.5385  -27.1738   11.1795 N.am        1 PAX      -0.1859
     48 C4T       -25.1903  -26.0995   11.8831 C.2         1 PAX       0.1930
     49 O4T       -24.0938  -25.6097   11.6479 O.2         1 PAX      -0.4079
     50 C5T       -26.0418  -25.5710   12.8229 C.2         1 PAX       0.0225
     51 CM5       -25.6649  -24.4131   13.6283 C.3         1 PAX      -0.0437
     52 H1        -32.5776  -25.9739   17.4069 H           1 PAX       0.0996
     53 H2        -33.5539  -25.8914   22.5777 H           1 PAX       0.1820
     54 H3        -34.4899  -25.0890   21.4364 H           1 PAX       0.1820
     55 H4        -29.6366  -28.5249   22.5174 H           1 PAX       0.1349
     56 H5        -28.4740  -32.5620   17.5549 H           1 PAX       0.0648
     57 H6        -29.7855  -32.3248   18.7019 H           1 PAX       0.0648
     58 H7        -28.0834  -30.0706   17.4637 H           1 PAX       0.0654
     59 H8        -28.4575  -27.9732   19.1102 H           1 PAX       0.0996
     60 H9        -28.3920  -30.0443   21.3493 H           1 PAX       0.0680
     61 H10       -27.1669  -28.3184   21.7204 H           1 PAX       0.2101
     62 H11       -27.6726  -31.6631   19.9934 H           1 PAX       0.0704
     63 H12       -31.9435  -25.1121   12.9736 H           1 PAX       0.0639
     64 H13       -32.2980  -26.0424   14.4430 H           1 PAX       0.0639
     65 H14       -31.9308  -27.3534   12.2922 H           1 PAX       0.0653
     66 H15       -29.1606  -28.5992   11.6240 H           1 PAX       0.0959
     67 H16       -28.7705  -27.8018   14.5393 H           1 PAX       0.0348
     68 H17       -28.8553  -29.4184   13.8323 H           1 PAX       0.0348
     69 H18       -31.0522  -28.1062   14.9142 H           1 PAX       0.0686
     70 H19       -27.8899  -25.7912   13.6108 H           1 PAX       0.1011
     71 H20       -24.9097  -27.5383   10.5362 H           1 PAX       0.2259
     72 H21       -26.4186  -24.1491   14.3736 H           1 PAX       0.0296
     73 H22       -25.5236  -23.5506   12.9748 H           1 PAX       0.0296
     74 H23       -24.7306  -24.6138   14.1576 H           1 PAX       0.0296
@<TRIPOS>BOND
     1     1     2  ar
     2     1     3  ar
     3     1     4   1
     4     8     1   1
     5     4    23   1
     6     5     6  ar
     7     5     7  ar
     8     5     8   1
     9    38     5   1
    10     9    10  ar
    11     9    11  ar
    12     9    12  ar
    13    30     9   1
    14    13    14   1
    15    13    22   1
    16    26    13   1
    17    14    15  ar
    18    14    20  ar
    19    15    16  ar
    20    16    17  ar
    21    18    17  ar
    22    18    19   1
    23    20    18  ar
    24    21    20   1
    25    22    21   2
    26    23    24   1
    27    24    25   1
    28    24    29   1
    29    25    26   1
    30    27    26   1
    31    27    28   1
    32    29    27   1
    33    29    30   1
    34    32    31   1
    35    31    39   1
    36    33    32   1
    37    33    34   1
    38    37    33   1
    39    35    34   1
    40    36    35   1
    41    35    43   1
    42    37    36   1
    43    37    38   1
    44    39    40  ar
    45    39    41  ar
    46    39    42  ar
    47    43    44   1
    48    43    45  am
    49    44    50   2
    50    45    46   2
    51    45    47  am
    52    47    48  am
    53    48    49   2
    54    48    50   1
    55    50    51   1
    56    16    52   1
    57    19    53   1
    58    19    54   1
    59    22    55   1
    60    23    56   1
    61    23    57   1
    62    24    58   1
    63    26    59   1
    64    27    60   1
    65    28    61   1
    66    29    62   1
    67    32    63   1
    68    32    64   1
    69    33    65   1
    70    35    66   1
    71    36    67   1
    72    36    68   1
    73    37    69   1
    74    44    70   1
    75    47    71   1
    76    51    72   1
    77    51    73   1
    78    51    74   1
@<TRIPOS>SUBSTRUCTURE
     1  PAX     14

