@<TRIPOS>MOLECULE
1u33_ligand_089
    70    72
SMALL
GAST_HUCK
****
This file was generated by PARSER (from files_GN.cpp)

@<TRIPOS>ATOM
      1 CA1        10.5013   16.9278   43.3553 C.2         1 MOL       0.1322
      2 NA1         9.2074   17.1648   43.6278 N.2         1 MOL      -0.2068
      3 OA7         8.3534   16.2767   44.0522 O.3         1 MOL      -0.3046
      4 CA2        11.0829   15.5565   43.4001 C.3         1 MOL       0.1504
      5 OA2        10.8427   14.9511   44.6742 O.3         1 MOL      -0.3713
      6 CA3        12.6053   15.4876   43.0763 C.3         1 MOL       0.1237
      7 OA3        12.9229   14.1830   42.5912 O.3         1 MOL      -0.3840
      8 CA4        13.0550   16.5918   42.0774 C.3         1 MOL       0.1169
      9 OA4        14.4843   16.5567   41.9533 O.3         1 MOL      -0.3402
     10 CA5        12.6212   17.9732   42.6678 C.3         1 MOL       0.0902
     11 NA5        11.2132   18.0019   42.9405 N.pl3       1 MOL      -0.2990
     12 CA6        13.0300   19.1855   41.7923 C.3         1 MOL       0.0694
     13 OA6        12.3507   19.1889   40.5418 O.3         1 MOL      -0.3927
     14 CB1        15.1423   15.9698   40.8134 C.3         1 MOL       0.1884
     15 CB2        15.2878   16.9789   39.6464 C.3         1 MOL       0.1341
     16 CB3        16.1279   16.3575   38.4966 C.3         1 MOL       0.1144
     17 CB4        15.5994   14.9581   38.0655 C.3         1 MOL       0.1184
     18 CB5        15.2805   14.0447   39.2980 C.3         1 MOL       0.1134
     19 CB6        16.5353   13.3263   39.8738 C.3         1 MOL       0.0730
     20 OB2        14.0135   17.3868   39.1486 O.3         1 MOL      -0.3841
     21 OB3        17.4967   16.2613   38.8849 O.3         1 MOL      -0.3864
     22 OB4        14.4149   15.2002   37.2762 O.3         1 MOL      -0.3401
     23 OB5        14.5489   14.7454   40.3342 O.3         1 MOL      -0.3405
     24 OB6        17.0595   12.3618   38.9585 O.3         1 MOL      -0.3924
     25 CD1        14.0686   14.3808   36.1331 C.3         1 MOL       0.1884
     26 CD2        15.0073   14.4632   34.8938 C.3         1 MOL       0.1341
     27 CD3        15.1038   15.9257   34.3819 C.3         1 MOL       0.1143
     28 CD4        13.6899   16.5171   34.0882 C.3         1 MOL       0.1150
     29 CD5        12.6736   16.1872   35.2386 C.3         1 MOL       0.1133
     30 CD6        11.2081   16.4434   34.8011 C.3         1 MOL       0.0730
     31 OD2        16.3039   13.9350   35.1634 O.3         1 MOL      -0.3841
     32 OD3        15.8978   15.9422   33.1959 O.3         1 MOL      -0.3864
     33 OD4        13.7046   17.9585   33.9591 O.3         1 MOL      -0.3745
     34 OD5        12.7609   14.8069   35.6885 O.3         1 MOL      -0.3405
     35 OD6        10.3062   16.1944   35.8749 O.3         1 MOL      -0.3924
     36 CD7        14.2837   18.5371   32.7827 C.3         1 MOL       0.0370
     37 H1          7.8879   16.7330   44.7833 H           1 MOL       0.2523
     38 H2         10.5403   14.9668   42.6544 H           1 MOL       0.0843
     39 H3         11.3788   15.4607   45.3220 H           1 MOL       0.2137
     40 H4         13.1672   15.6259   44.0049 H           1 MOL       0.0674
     41 H5         13.8986   14.1727   42.5091 H           1 MOL       0.2103
     42 H6         12.5523   16.4425   41.1174 H           1 MOL       0.0650
     43 H7         13.1282   18.1044   43.6311 H           1 MOL       0.0603
     44 H8         10.7451   18.8504   42.8467 H           1 MOL       0.1812
     45 H9         14.1027   19.1619   41.5971 H           1 MOL       0.0581
     46 H10        12.8124   20.1212   42.3137 H           1 MOL       0.0581
     47 H11        11.4601   19.5358   40.7468 H           1 MOL       0.2095
     48 H12        16.1452   15.7507   41.1930 H           1 MOL       0.0938
     49 H13        15.7906   17.8786   40.0223 H           1 MOL       0.0671
     50 H14        16.0984   17.0303   37.6394 H           1 MOL       0.0648
     51 H15        16.3819   14.4999   37.4561 H           1 MOL       0.0651
     52 H16        14.6097   13.2498   38.9512 H           1 MOL       0.0647
     53 H17        16.2674   12.8172   40.8025 H           1 MOL       0.0584
     54 H18        17.3228   14.0419   40.1105 H           1 MOL       0.0584
     55 H19        13.5440   16.5606   38.9024 H           1 MOL       0.2101
     56 H20        17.7687   17.1654   39.1374 H           1 MOL       0.2100
     57 H21        17.7946   11.9330   39.4404 H           1 MOL       0.2095
     58 H22        13.9818   13.3347   36.4445 H           1 MOL       0.0938
     59 H23        14.5763   13.8446   34.0966 H           1 MOL       0.0671
     60 H24        15.6084   16.5453   35.1309 H           1 MOL       0.0648
     61 H25        13.3147   16.0566   33.1667 H           1 MOL       0.0649
     62 H26        12.8784   16.8473   36.0866 H           1 MOL       0.0647
     63 H27        10.9444   15.7853   33.9693 H           1 MOL       0.0584
     64 H28        11.0846   17.4814   34.4821 H           1 MOL       0.0584
     65 H29        16.1526   12.9879   35.3848 H           1 MOL       0.2101
     66 H30        16.7815   15.6073   33.4654 H           1 MOL       0.2100
     67 H31         9.4141   16.3710   35.5022 H           1 MOL       0.2095
     68 H32        14.0351   19.6012   32.7723 H           1 MOL       0.0524
     69 H33        13.8834   18.0871   31.8740 H           1 MOL       0.0524
     70 H34        15.3694   18.4469   32.7939 H           1 MOL       0.0524
@<TRIPOS>BOND
     1     1     2   2
     2     1     4   1
     3     1    11   1
     4     2     3   1
     5     4     5   1
     6     4     6   1
     7     6     7   1
     8     6     8   1
     9     8     9   1
    10     8    10   1
    11     9    14   1
    12    10    11   1
    13    10    12   1
    14    12    13   1
    15    14    15   1
    16    14    23   1
    17    15    16   1
    18    15    20   1
    19    16    17   1
    20    16    21   1
    21    17    18   1
    22    17    22   1
    23    18    19   1
    24    18    23   1
    25    19    24   1
    26    22    25   1
    27    25    26   1
    28    25    34   1
    29    26    27   1
    30    26    31   1
    31    27    28   1
    32    27    32   1
    33    28    29   1
    34    28    33   1
    35    29    30   1
    36    29    34   1
    37    30    35   1
    38    33    36   1
    39     3    37   1
    40     4    38   1
    41     5    39   1
    42     6    40   1
    43     7    41   1
    44     8    42   1
    45    10    43   1
    46    11    44   1
    47    12    45   1
    48    12    46   1
    49    13    47   1
    50    14    48   1
    51    15    49   1
    52    16    50   1
    53    17    51   1
    54    18    52   1
    55    19    53   1
    56    19    54   1
    57    20    55   1
    58    21    56   1
    59    24    57   1
    60    25    58   1
    61    26    59   1
    62    27    60   1
    63    28    61   1
    64    29    62   1
    65    30    63   1
    66    30    64   1
    67    31    65   1
    68    32    66   1
    69    35    67   1
    70    36    68   1
    71    36    69   1
    72    36    70   1
@<TRIPOS>SUBSTRUCTURE
     1  MOL      1

