@<TRIPOS>MOLECULE
1u33_ligand_012
    70    72
SMALL
GAST_HUCK
****
This file was generated by PARSER (from files_GN.cpp)

@<TRIPOS>ATOM
      1 CA1         8.1817   17.6253   42.0562 C.2         1 MOL       0.1322
      2 NA1         6.9551   18.1639   42.2280 N.2         1 MOL      -0.2068
      3 OA7         6.6136   18.9752   43.1977 O.3         1 MOL      -0.3046
      4 CA2         8.4356   16.8715   40.8026 C.3         1 MOL       0.1504
      5 OA2         7.5192   15.7818   40.6865 O.3         1 MOL      -0.3713
      6 CA3         9.8874   16.3198   40.7027 C.3         1 MOL       0.1237
      7 OA3        10.1960   15.9969   39.3473 O.3         1 MOL      -0.3840
      8 CA4        10.9122   17.3296   41.2880 C.3         1 MOL       0.1169
      9 OA4        12.2356   16.7867   41.0699 O.3         1 MOL      -0.3402
     10 CA5        10.5574   17.5624   42.7963 C.3         1 MOL       0.0902
     11 NA5         9.1619   17.8647   42.9695 N.pl3       1 MOL      -0.2990
     12 CA6        11.4030   18.6988   43.4326 C.3         1 MOL       0.0694
     13 OA6        11.0312   18.9323   44.7894 O.3         1 MOL      -0.3927
     14 CB1        13.3388   17.6385   40.6658 C.3         1 MOL       0.1884
     15 CB2        13.3113   18.1879   39.2068 C.3         1 MOL       0.1341
     16 CB3        13.5472   17.0721   38.1602 C.3         1 MOL       0.1144
     17 CB4        14.8140   16.2176   38.4972 C.3         1 MOL       0.1184
     18 CB5        14.7614   15.7589   39.9901 C.3         1 MOL       0.1134
     19 CB6        16.0218   14.9798   40.4577 C.3         1 MOL       0.0730
     20 OB2        12.0965   18.8867   38.9242 O.3         1 MOL      -0.3841
     21 OB3        13.6929   17.6914   36.8785 O.3         1 MOL      -0.3864
     22 OB4        15.1331   15.0535   37.6875 O.3         1 MOL      -0.3401
     23 OB5        14.5671   16.9017   40.8616 O.3         1 MOL      -0.3405
     24 OB6        17.2417   15.4483   39.8746 O.3         1 MOL      -0.3924
     25 CD1        14.3021   14.5381   36.6294 C.3         1 MOL       0.1884
     26 CD2        14.8504   13.1748   36.1254 C.3         1 MOL       0.1341
     27 CD3        16.1656   13.3594   35.3161 C.3         1 MOL       0.1143
     28 CD4        15.9957   14.4367   34.2009 C.3         1 MOL       0.1150
     29 CD5        15.4192   15.7484   34.8205 C.3         1 MOL       0.1133
     30 CD6        15.1180   16.8451   33.7657 C.3         1 MOL       0.0730
     31 OD2        15.0544   12.3035   37.2393 O.3         1 MOL      -0.3841
     32 OD3        16.5588   12.1079   34.7635 O.3         1 MOL      -0.3864
     33 OD4        17.2715   14.7462   33.5877 O.3         1 MOL      -0.3745
     34 OD5        14.1896   15.4637   35.5255 O.3         1 MOL      -0.3405
     35 OD6        13.8711   16.6335   33.1102 O.3         1 MOL      -0.3924
     36 CD7        17.6461   13.9777   32.4310 C.3         1 MOL       0.0370
     37 H1          7.3349   19.6386   43.2280 H           1 MOL       0.2523
     38 H2          8.2630   17.5536   39.9656 H           1 MOL       0.0843
     39 H3          6.6318   16.1936   40.5716 H           1 MOL       0.2137
     40 H4          9.9533   15.3870   41.2702 H           1 MOL       0.0674
     41 H5         10.1780   16.8475   38.8609 H           1 MOL       0.2103
     42 H6         10.7758   18.2816   40.7726 H           1 MOL       0.0650
     43 H7         10.7610   16.6460   43.3573 H           1 MOL       0.0603
     44 H8          8.8857   18.2918   43.8004 H           1 MOL       0.1812
     45 H9         11.2621   19.6323   42.8831 H           1 MOL       0.0581
     46 H10        12.4640   18.4392   43.4172 H           1 MOL       0.0581
     47 H11        11.3889   18.1719   45.2875 H           1 MOL       0.2095
     48 H12        13.3839   18.4910   41.3437 H           1 MOL       0.0938
     49 H13        14.1262   18.9141   39.1203 H           1 MOL       0.0671
     50 H14        12.6634   16.4273   38.1243 H           1 MOL       0.0648
     51 H15        15.6749   16.8821   38.3891 H           1 MOL       0.0651
     52 H16        13.9163   15.0710   40.1188 H           1 MOL       0.0647
     53 H17        15.9199   13.9213   40.1876 H           1 MOL       0.0584
     54 H18        16.1155   15.0288   41.5484 H           1 MOL       0.0584
     55 H19        12.1977   19.2716   38.0280 H           1 MOL       0.2101
     56 H20        12.8963   18.2647   36.7637 H           1 MOL       0.2100
     57 H21        17.4567   16.2895   40.3319 H           1 MOL       0.2095
     58 H22        13.2982   14.3539   37.0268 H           1 MOL       0.0938
     59 H23        14.0918   12.7227   35.4834 H           1 MOL       0.0671
     60 H24        16.9587   13.6736   35.9958 H           1 MOL       0.0648
     61 H25        15.2708   14.0700   33.4648 H           1 MOL       0.0649
     62 H26        16.1558   16.1639   35.5166 H           1 MOL       0.0647
     63 H27        15.9032   16.8702   33.0070 H           1 MOL       0.0584
     64 H28        15.0915   17.8219   34.2545 H           1 MOL       0.0584
     65 H29        14.6535   11.4403   36.9938 H           1 MOL       0.2101
     66 H30        15.8471   11.8591   34.1345 H           1 MOL       0.2100
     67 H31        13.1887   16.8022   33.7936 H           1 MOL       0.2095
     68 H32        18.6024   14.3501   32.0671 H           1 MOL       0.0524
     69 H33        16.9118   14.0877   31.6299 H           1 MOL       0.0524
     70 H34        17.7604   12.9234   32.6812 H           1 MOL       0.0524
@<TRIPOS>BOND
     1     1     2   2
     2     1     4   1
     3     1    11   1
     4     2     3   1
     5     4     5   1
     6     4     6   1
     7     6     7   1
     8     6     8   1
     9     8     9   1
    10     8    10   1
    11     9    14   1
    12    10    11   1
    13    10    12   1
    14    12    13   1
    15    14    15   1
    16    14    23   1
    17    15    16   1
    18    15    20   1
    19    16    17   1
    20    16    21   1
    21    17    18   1
    22    17    22   1
    23    18    19   1
    24    18    23   1
    25    19    24   1
    26    22    25   1
    27    25    26   1
    28    25    34   1
    29    26    27   1
    30    26    31   1
    31    27    28   1
    32    27    32   1
    33    28    29   1
    34    28    33   1
    35    29    30   1
    36    29    34   1
    37    30    35   1
    38    33    36   1
    39     3    37   1
    40     4    38   1
    41     5    39   1
    42     6    40   1
    43     7    41   1
    44     8    42   1
    45    10    43   1
    46    11    44   1
    47    12    45   1
    48    12    46   1
    49    13    47   1
    50    14    48   1
    51    15    49   1
    52    16    50   1
    53    17    51   1
    54    18    52   1
    55    19    53   1
    56    19    54   1
    57    20    55   1
    58    21    56   1
    59    24    57   1
    60    25    58   1
    61    26    59   1
    62    27    60   1
    63    28    61   1
    64    29    62   1
    65    30    63   1
    66    30    64   1
    67    31    65   1
    68    32    66   1
    69    35    67   1
    70    36    68   1
    71    36    69   1
    72    36    70   1
@<TRIPOS>SUBSTRUCTURE
     1  MOL      1

