@<TRIPOS>MOLECULE
1u33_ligand_078
    70    72
SMALL
GAST_HUCK
****
This file was generated by PARSER (from files_GN.cpp)

@<TRIPOS>ATOM
      1 CA1         1.8661   13.8354   38.9831 C.2         1 MOL       0.1322
      2 NA1         1.0645   13.6306   37.9184 N.2         1 MOL      -0.2068
      3 OA7         0.6396   12.4764   37.5147 O.3         1 MOL      -0.3046
      4 CA2         2.4046   12.7348   39.8255 C.3         1 MOL       0.1504
      5 OA2         1.6071   12.6177   41.0010 O.3         1 MOL      -0.3713
      6 CA3         3.8803   13.0324   40.2201 C.3         1 MOL       0.1237
      7 OA3         4.7147   12.6108   39.1300 O.3         1 MOL      -0.3840
      8 CA4         4.2215   14.5281   40.5891 C.3         1 MOL       0.1169
      9 OA4         4.7553   14.7636   41.9189 O.3         1 MOL      -0.3402
     10 CA5         2.9739   15.4636   40.4413 C.3         1 MOL       0.0902
     11 NA5         2.1959   15.1144   39.2807 N.pl3       1 MOL      -0.2990
     12 CA6         3.2840   16.9992   40.4630 C.3         1 MOL       0.0694
     13 OA6         4.6648   17.3395   40.3512 O.3         1 MOL      -0.3927
     14 CB1         5.8638   13.9807   42.4180 C.3         1 MOL       0.1884
     15 CB2         6.3531   14.4792   43.8067 C.3         1 MOL       0.1341
     16 CB3         7.3913   15.6210   43.7080 C.3         1 MOL       0.1144
     17 CB4         8.5133   15.2830   42.6840 C.3         1 MOL       0.1184
     18 CB5         7.8133   14.9957   41.3149 C.3         1 MOL       0.1134
     19 CB6         8.7922   14.6561   40.1637 C.3         1 MOL       0.0730
     20 OB2         5.2438   14.8775   44.6108 O.3         1 MOL      -0.3841
     21 OB3         7.9593   15.8171   44.9978 O.3         1 MOL      -0.3864
     22 OB4         9.4907   16.3556   42.6172 O.3         1 MOL      -0.3401
     23 OB5         6.9481   13.8464   41.4710 O.3         1 MOL      -0.3405
     24 OB6         9.3273   15.8454   39.5864 O.3         1 MOL      -0.3924
     25 CD1        10.6879   16.2211   43.4357 C.3         1 MOL       0.1884
     26 CD2        11.3711   17.5897   43.7014 C.3         1 MOL       0.1341
     27 CD3        11.9915   18.1622   42.3944 C.3         1 MOL       0.1143
     28 CD4        12.9504   17.1298   41.7262 C.3         1 MOL       0.1150
     29 CD5        12.2079   15.7641   41.5804 C.3         1 MOL       0.1133
     30 CD6        13.0949   14.6232   41.0210 C.3         1 MOL       0.0730
     31 OD2        10.4666   18.5066   44.3148 O.3         1 MOL      -0.3841
     32 OD3        12.6839   19.3806   42.6673 O.3         1 MOL      -0.3864
     33 OD4        13.3006   17.5562   40.3882 O.3         1 MOL      -0.3745
     34 OD5        11.6406   15.3215   42.8366 O.3         1 MOL      -0.3405
     35 OD6        12.3243   13.4230   40.9398 O.3         1 MOL      -0.3924
     36 CD7        14.4502   18.3994   40.2289 C.3         1 MOL       0.0370
     37 H1          0.0539   12.6751   36.7546 H           1 MOL       0.2523
     38 H2          2.3521   11.7759   39.3012 H           1 MOL       0.0843
     39 H3          0.7342   12.2714   40.7035 H           1 MOL       0.2137
     40 H4          4.1121   12.3714   41.0525 H           1 MOL       0.0674
     41 H5          5.6362   12.6514   39.4806 H           1 MOL       0.2103
     42 H6          4.9682   14.8795   39.8753 H           1 MOL       0.0650
     43 H7          2.3190   15.2627   41.2987 H           1 MOL       0.0603
     44 H8          1.8630   15.8185   38.7044 H           1 MOL       0.1812
     45 H9          2.9358   17.4275   41.4057 H           1 MOL       0.0581
     46 H10         2.7498   17.5154   39.6604 H           1 MOL       0.0581
     47 H11         4.9166   17.1105   39.4290 H           1 MOL       0.2095
     48 H12         5.4836   12.9739   42.5903 H           1 MOL       0.0938
     49 H13         6.8369   13.6465   44.3135 H           1 MOL       0.0671
     50 H14         6.8896   16.5459   43.4064 H           1 MOL       0.0648
     51 H15         8.9985   14.3471   42.9930 H           1 MOL       0.0651
     52 H16         7.2190   15.8584   41.0021 H           1 MOL       0.0647
     53 H17         8.2679   14.1128   39.3676 H           1 MOL       0.0584
     54 H18         9.6065   14.0223   40.5292 H           1 MOL       0.0584
     55 H19         4.7138   14.0581   44.7522 H           1 MOL       0.2101
     56 H20         7.9946   16.7991   45.1167 H           1 MOL       0.2100
     57 H21         9.9543   15.5283   38.9011 H           1 MOL       0.2095
     58 H22        10.4412   15.8003   44.4123 H           1 MOL       0.0938
     59 H23        12.1825   17.4365   44.4182 H           1 MOL       0.0671
     60 H24        11.1821   18.3901   41.6913 H           1 MOL       0.0648
     61 H25        13.8375   16.9736   42.3491 H           1 MOL       0.0649
     62 H26        11.3935   15.8996   40.8595 H           1 MOL       0.0647
     63 H27        13.9574   14.4490   41.6669 H           1 MOL       0.0584
     64 H28        13.4453   14.8834   40.0170 H           1 MOL       0.0584
     65 H29         9.9279   18.8867   43.5865 H           1 MOL       0.2101
     66 H30        12.0980   20.0903   42.3392 H           1 MOL       0.2100
     67 H31        12.6642   12.9368   40.1561 H           1 MOL       0.2095
     68 H32        14.5352   18.6286   39.1642 H           1 MOL       0.0524
     69 H33        15.3581   17.8742   40.5420 H           1 MOL       0.0524
     70 H34        14.3481   19.3332   40.7918 H           1 MOL       0.0524
@<TRIPOS>BOND
     1     1     2   2
     2     1     4   1
     3     1    11   1
     4     2     3   1
     5     4     5   1
     6     4     6   1
     7     6     7   1
     8     6     8   1
     9     8     9   1
    10     8    10   1
    11     9    14   1
    12    10    11   1
    13    10    12   1
    14    12    13   1
    15    14    15   1
    16    14    23   1
    17    15    16   1
    18    15    20   1
    19    16    17   1
    20    16    21   1
    21    17    18   1
    22    17    22   1
    23    18    19   1
    24    18    23   1
    25    19    24   1
    26    22    25   1
    27    25    26   1
    28    25    34   1
    29    26    27   1
    30    26    31   1
    31    27    28   1
    32    27    32   1
    33    28    29   1
    34    28    33   1
    35    29    30   1
    36    29    34   1
    37    30    35   1
    38    33    36   1
    39     3    37   1
    40     4    38   1
    41     5    39   1
    42     6    40   1
    43     7    41   1
    44     8    42   1
    45    10    43   1
    46    11    44   1
    47    12    45   1
    48    12    46   1
    49    13    47   1
    50    14    48   1
    51    15    49   1
    52    16    50   1
    53    17    51   1
    54    18    52   1
    55    19    53   1
    56    19    54   1
    57    20    55   1
    58    21    56   1
    59    24    57   1
    60    25    58   1
    61    26    59   1
    62    27    60   1
    63    28    61   1
    64    29    62   1
    65    30    63   1
    66    30    64   1
    67    31    65   1
    68    32    66   1
    69    35    67   1
    70    36    68   1
    71    36    69   1
    72    36    70   1
@<TRIPOS>SUBSTRUCTURE
     1  MOL      1

