@<TRIPOS>MOLECULE
1u33_ligand_053
    70    72
SMALL
GAST_HUCK
****
This file was generated by PARSER (from files_GN.cpp)

@<TRIPOS>ATOM
      1 CA1         3.0015   12.6778   39.5676 C.2         1 MOL       0.1322
      2 NA1         1.7673   12.1830   39.8240 N.2         1 MOL      -0.2068
      3 OA7         0.9930   11.6186   38.9326 O.3         1 MOL      -0.3046
      4 CA2         3.7827   13.2596   40.6888 C.3         1 MOL       0.1504
      5 OA2         2.9181   13.9001   41.6322 O.3         1 MOL      -0.3713
      6 CA3         4.9051   14.2201   40.1989 C.3         1 MOL       0.1237
      7 OA3         5.7630   14.5218   41.3024 O.3         1 MOL      -0.3840
      8 CA4         5.7239   13.5458   39.0524 C.3         1 MOL       0.1169
      9 OA4         6.8800   14.2611   38.5445 O.3         1 MOL      -0.3402
     10 CA5         4.7836   13.0939   37.8863 C.3         1 MOL       0.0902
     11 NA5         3.5169   12.5821   38.3164 N.pl3       1 MOL      -0.2990
     12 CA6         5.4685   12.0651   36.9486 C.3         1 MOL       0.0694
     13 OA6         5.8644   10.8951   37.6581 O.3         1 MOL      -0.3927
     14 CB1         6.7913   15.6495   38.1120 C.3         1 MOL       0.1884
     15 CB2         8.0548   16.0663   37.2973 C.3         1 MOL       0.1341
     16 CB3         9.3160   16.0708   38.2131 C.3         1 MOL       0.1144
     17 CB4         9.1216   16.8392   39.5648 C.3         1 MOL       0.1184
     18 CB5         7.7314   16.4932   40.2109 C.3         1 MOL       0.1134
     19 CB6         7.2015   17.3705   41.3640 C.3         1 MOL       0.0730
     20 OB2         8.2298   15.1967   36.1727 O.3         1 MOL      -0.3841
     21 OB3        10.4254   16.5952   37.4750 O.3         1 MOL      -0.3864
     22 OB4        10.2856   16.4354   40.3173 O.3         1 MOL      -0.3401
     23 OB5         6.6712   16.5579   39.2307 O.3         1 MOL      -0.3405
     24 OB6         7.4445   18.7580   41.1541 O.3         1 MOL      -0.3924
     25 CD1        10.6374   16.9842   41.5930 C.3         1 MOL       0.1884
     26 CD2        11.8796   17.8847   41.4912 C.3         1 MOL       0.1341
     27 CD3        12.3962   18.2484   42.9094 C.3         1 MOL       0.1143
     28 CD4        12.5797   16.9652   43.7915 C.3         1 MOL       0.1150
     29 CD5        11.3264   16.0112   43.7512 C.3         1 MOL       0.1133
     30 CD6        10.1621   16.3002   44.7358 C.3         1 MOL       0.0730
     31 OD2        12.8978   17.2475   40.7258 O.3         1 MOL      -0.3841
     32 OD3        11.5583   19.2040   43.5477 O.3         1 MOL      -0.3864
     33 OD4        13.7793   16.3666   43.2469 O.3         1 MOL      -0.3745
     34 OD5        10.8678   15.8170   42.3973 O.3         1 MOL      -0.3405
     35 OD6         9.9871   17.6805   45.0252 O.3         1 MOL      -0.3924
     36 CD7        14.0047   14.9448   43.3483 C.3         1 MOL       0.0370
     37 H1          0.1225   11.5474   39.3762 H           1 MOL       0.2523
     38 H2          4.2488   12.4258   41.2266 H           1 MOL       0.0843
     39 H3          2.8186   14.8278   41.3292 H           1 MOL       0.2137
     40 H4          4.4669   15.1484   39.8292 H           1 MOL       0.0674
     41 H5          5.2374   15.1109   41.8890 H           1 MOL       0.2103
     42 H6          6.1538   12.6429   39.4887 H           1 MOL       0.0650
     43 H7          4.5366   13.9664   37.2792 H           1 MOL       0.0603
     44 H8          2.9456   12.1872   37.6405 H           1 MOL       0.1812
     45 H9          6.3487   12.5092   36.4794 H           1 MOL       0.0581
     46 H10         4.7729   11.7766   36.1567 H           1 MOL       0.0581
     47 H11         6.3140   10.3327   36.9965 H           1 MOL       0.2095
     48 H12         5.9230   15.8068   37.4582 H           1 MOL       0.0938
     49 H13         7.8980   17.0806   36.9129 H           1 MOL       0.0671
     50 H14         9.5504   15.0208   38.4319 H           1 MOL       0.0648
     51 H15         9.1779   17.9093   39.3599 H           1 MOL       0.0651
     52 H16         7.8112   15.4726   40.5901 H           1 MOL       0.0647
     53 H17         7.6140   17.0751   42.3181 H           1 MOL       0.0584
     54 H18         6.1277   17.2386   41.4599 H           1 MOL       0.0584
     55 H19         8.3856   14.3060   36.5593 H           1 MOL       0.2101
     56 H20        10.2361   17.5491   37.3434 H           1 MOL       0.2100
     57 H21         8.4170   18.8712   41.1893 H           1 MOL       0.2095
     58 H22         9.8573   17.5881   42.0065 H           1 MOL       0.0938
     59 H23        11.6128   18.8009   40.9704 H           1 MOL       0.0671
     60 H24        13.3696   18.7429   42.8095 H           1 MOL       0.0648
     61 H25        12.7880   17.2499   44.8242 H           1 MOL       0.0649
     62 H26        11.6532   15.0245   44.0831 H           1 MOL       0.0647
     63 H27        10.3324   15.7742   45.6809 H           1 MOL       0.0584
     64 H28         9.2272   15.9192   44.2951 H           1 MOL       0.0584
     65 H29        12.5551   17.2234   39.8094 H           1 MOL       0.2101
     66 H30        11.0432   19.6373   42.8333 H           1 MOL       0.2100
     67 H31         9.0179   17.8206   45.0035 H           1 MOL       0.2095
     68 H32        15.0761   14.7634   43.2111 H           1 MOL       0.0524
     69 H33        13.4683   14.4229   42.5427 H           1 MOL       0.0524
     70 H34        13.6796   14.5624   44.3248 H           1 MOL       0.0524
@<TRIPOS>BOND
     1     1     2   2
     2     1     4   1
     3     1    11   1
     4     2     3   1
     5     4     5   1
     6     4     6   1
     7     6     7   1
     8     6     8   1
     9     8     9   1
    10     8    10   1
    11     9    14   1
    12    10    11   1
    13    10    12   1
    14    12    13   1
    15    14    15   1
    16    14    23   1
    17    15    16   1
    18    15    20   1
    19    16    17   1
    20    16    21   1
    21    17    18   1
    22    17    22   1
    23    18    19   1
    24    18    23   1
    25    19    24   1
    26    22    25   1
    27    25    26   1
    28    25    34   1
    29    26    27   1
    30    26    31   1
    31    27    28   1
    32    27    32   1
    33    28    29   1
    34    28    33   1
    35    29    30   1
    36    29    34   1
    37    30    35   1
    38    33    36   1
    39     3    37   1
    40     4    38   1
    41     5    39   1
    42     6    40   1
    43     7    41   1
    44     8    42   1
    45    10    43   1
    46    11    44   1
    47    12    45   1
    48    12    46   1
    49    13    47   1
    50    14    48   1
    51    15    49   1
    52    16    50   1
    53    17    51   1
    54    18    52   1
    55    19    53   1
    56    19    54   1
    57    20    55   1
    58    21    56   1
    59    24    57   1
    60    25    58   1
    61    26    59   1
    62    27    60   1
    63    28    61   1
    64    29    62   1
    65    30    63   1
    66    30    64   1
    67    31    65   1
    68    32    66   1
    69    35    67   1
    70    36    68   1
    71    36    69   1
    72    36    70   1
@<TRIPOS>SUBSTRUCTURE
     1  MOL      1

