@<TRIPOS>MOLECULE
1u33_ligand_073
    70    72
SMALL
GAST_HUCK
****
This file was generated by PARSER (from files_GN.cpp)

@<TRIPOS>ATOM
      1 CA1         8.5238   17.7913   42.0730 C.2         1 MOL       0.1322
      2 NA1         7.3247   18.2938   42.4322 N.2         1 MOL      -0.2068
      3 OA7         6.4173   18.6980   41.5948 O.3         1 MOL      -0.3046
      4 CA2         9.4853   17.3796   43.1353 C.3         1 MOL       0.1504
      5 OA2         9.4502   18.2705   44.2502 O.3         1 MOL      -0.3713
      6 CA3        10.9489   17.3490   42.6246 C.3         1 MOL       0.1237
      7 OA3        11.7925   16.7020   43.5814 O.3         1 MOL      -0.3840
      8 CA4        11.0323   16.6116   41.2579 C.3         1 MOL       0.1169
      9 OA4        12.3639   16.3851   40.7323 O.3         1 MOL      -0.3402
     10 CA5        10.0756   17.2650   40.2153 C.3         1 MOL       0.0902
     11 NA5         8.8098   17.6685   40.7505 N.pl3       1 MOL      -0.2990
     12 CA6         9.8758   16.3712   38.9560 C.3         1 MOL       0.0694
     13 OA6         9.8993   17.1287   37.7495 O.3         1 MOL      -0.3927
     14 CB1        13.4237   17.3598   40.5894 C.3         1 MOL       0.1884
     15 CB2        13.5019   18.0914   39.2136 C.3         1 MOL       0.1341
     16 CB3        13.8216   17.0806   38.0741 C.3         1 MOL       0.1144
     17 CB4        15.1162   16.2845   38.4020 C.3         1 MOL       0.1184
     18 CB5        14.9895   15.6334   39.8149 C.3         1 MOL       0.1134
     19 CB6        16.2783   14.9084   40.2852 C.3         1 MOL       0.0730
     20 OB2        12.3365   18.8527   38.9310 O.3         1 MOL      -0.3841
     21 OB3        13.9898   17.7955   36.8515 O.3         1 MOL      -0.3864
     22 OB4        15.5869   15.3388   37.4173 O.3         1 MOL      -0.3401
     23 OB5        14.6623   16.6457   40.8031 O.3         1 MOL      -0.3405
     24 OB6        17.4781   15.5263   39.8144 O.3         1 MOL      -0.3924
     25 CD1        14.6774   14.6515   36.5286 C.3         1 MOL       0.1884
     26 CD2        15.3602   13.3687   35.9852 C.3         1 MOL       0.1341
     27 CD3        16.5631   13.7228   35.0618 C.3         1 MOL       0.1143
     28 CD4        16.1603   14.7445   33.9550 C.3         1 MOL       0.1150
     29 CD5        15.3897   15.9464   34.5820 C.3         1 MOL       0.1133
     30 CD6        14.8171   16.8929   33.4946 C.3         1 MOL       0.0730
     31 OD2        15.7882   12.5284   37.0621 O.3         1 MOL      -0.3841
     32 OD3        17.0792   12.5240   34.4849 O.3         1 MOL      -0.3864
     33 OD4        17.3375   15.2763   33.3033 O.3         1 MOL      -0.3745
     34 OD5        14.2935   15.4909   35.4172 O.3         1 MOL      -0.3405
     35 OD6        13.8664   17.8015   34.0394 O.3         1 MOL      -0.3924
     36 CD7        17.8633   14.5466   32.1864 C.3         1 MOL       0.0370
     37 H1          6.0353   19.4998   42.0163 H           1 MOL       0.2523
     38 H2          9.1967   16.3877   43.4827 H           1 MOL       0.0843
     39 H3          8.5059   18.3019   44.5107 H           1 MOL       0.2137
     40 H4         11.2892   18.3815   42.4975 H           1 MOL       0.0674
     41 H5         11.6306   17.1520   44.4433 H           1 MOL       0.2103
     42 H6         10.6458   15.5981   41.4379 H           1 MOL       0.0650
     43 H7         10.4987   18.2024   39.9071 H           1 MOL       0.0603
     44 H8          8.1558   18.0106   40.1123 H           1 MOL       0.1812
     45 H9          8.9224   15.8295   39.0175 H           1 MOL       0.0581
     46 H10        10.6744   15.6279   38.8715 H           1 MOL       0.0581
     47 H11         9.2555   17.8553   37.8841 H           1 MOL       0.2095
     48 H12        13.3718   18.1126   41.3764 H           1 MOL       0.0938
     49 H13        14.3238   18.8152   39.2716 H           1 MOL       0.0671
     50 H14        12.9726   16.4010   37.9574 H           1 MOL       0.0648
     51 H15        15.9198   17.0215   38.4615 H           1 MOL       0.0651
     52 H16        14.1960   14.8778   39.7941 H           1 MOL       0.0647
     53 H17        16.2794   13.8734   39.9254 H           1 MOL       0.0584
     54 H18        16.3137   14.8766   41.3838 H           1 MOL       0.0584
     55 H19        12.3670   19.1307   38.0014 H           1 MOL       0.2101
     56 H20        13.1426   18.2720   36.7091 H           1 MOL       0.2100
     57 H21        17.5544   16.3738   40.3056 H           1 MOL       0.2095
     58 H22        13.7729   14.3420   37.0627 H           1 MOL       0.0938
     59 H23        14.6244   12.8021   35.4035 H           1 MOL       0.0671
     60 H24        17.3600   14.1596   35.6743 H           1 MOL       0.0648
     61 H25        15.4869   14.2441   33.2463 H           1 MOL       0.0649
     62 H26        16.0881   16.5382   35.1875 H           1 MOL       0.0647
     63 H27        14.3246   16.3127   32.7112 H           1 MOL       0.0584
     64 H28        15.6221   17.4767   33.0399 H           1 MOL       0.0584
     65 H29        16.4242   13.0730   37.5745 H           1 MOL       0.2101
     66 H30        16.3543   12.1716   33.9239 H           1 MOL       0.2100
     67 H31        14.3771   18.3671   34.6555 H           1 MOL       0.2095
     68 H32        18.7225   15.0956   31.7983 H           1 MOL       0.0524
     69 H33        17.1202   14.4653   31.3900 H           1 MOL       0.0524
     70 H34        18.1967   13.5508   32.4801 H           1 MOL       0.0524
@<TRIPOS>BOND
     1     1     2   2
     2     1     4   1
     3     1    11   1
     4     2     3   1
     5     4     5   1
     6     4     6   1
     7     6     7   1
     8     6     8   1
     9     8     9   1
    10     8    10   1
    11     9    14   1
    12    10    11   1
    13    10    12   1
    14    12    13   1
    15    14    15   1
    16    14    23   1
    17    15    16   1
    18    15    20   1
    19    16    17   1
    20    16    21   1
    21    17    18   1
    22    17    22   1
    23    18    19   1
    24    18    23   1
    25    19    24   1
    26    22    25   1
    27    25    26   1
    28    25    34   1
    29    26    27   1
    30    26    31   1
    31    27    28   1
    32    27    32   1
    33    28    29   1
    34    28    33   1
    35    29    30   1
    36    29    34   1
    37    30    35   1
    38    33    36   1
    39     3    37   1
    40     4    38   1
    41     5    39   1
    42     6    40   1
    43     7    41   1
    44     8    42   1
    45    10    43   1
    46    11    44   1
    47    12    45   1
    48    12    46   1
    49    13    47   1
    50    14    48   1
    51    15    49   1
    52    16    50   1
    53    17    51   1
    54    18    52   1
    55    19    53   1
    56    19    54   1
    57    20    55   1
    58    21    56   1
    59    24    57   1
    60    25    58   1
    61    26    59   1
    62    27    60   1
    63    28    61   1
    64    29    62   1
    65    30    63   1
    66    30    64   1
    67    31    65   1
    68    32    66   1
    69    35    67   1
    70    36    68   1
    71    36    69   1
    72    36    70   1
@<TRIPOS>SUBSTRUCTURE
     1  MOL      1

