@<TRIPOS>MOLECULE
1u33_ligand_030
    70    72
SMALL
GAST_HUCK
****
This file was generated by PARSER (from files_GN.cpp)

@<TRIPOS>ATOM
      1 CA1        12.7493   15.2202   43.3589 C.2         1 MOL       0.1322
      2 NA1        13.9892   15.1373   43.8867 N.2         1 MOL      -0.2068
      3 OA7        14.4380   15.7709   44.9389 O.3         1 MOL      -0.3046
      4 CA2        12.4568   14.3846   42.1688 C.3         1 MOL       0.1504
      5 OA2        13.5484   14.5074   41.2435 O.3         1 MOL      -0.3713
      6 CA3        11.1196   14.7699   41.4386 C.3         1 MOL       0.1237
      7 OA3        10.7840   13.6599   40.5883 O.3         1 MOL      -0.3840
      8 CA4         9.9492   15.0682   42.4288 C.3         1 MOL       0.1169
      9 OA4         8.7858   15.7069   41.8198 O.3         1 MOL      -0.3402
     10 CA5        10.4107   16.0603   43.5580 C.3         1 MOL       0.0902
     11 NA5        11.7935   15.9617   43.9615 N.pl3       1 MOL      -0.2990
     12 CA6         9.5458   15.9766   44.8613 C.3         1 MOL       0.0694
     13 OA6         8.3552   15.1840   44.7430 O.3         1 MOL      -0.3927
     14 CB1         8.2916   15.3725   40.5019 C.3         1 MOL       0.1884
     15 CB2         7.2711   16.4748   40.0849 C.3         1 MOL       0.1341
     16 CB3         6.8508   16.2387   38.6105 C.3         1 MOL       0.1144
     17 CB4         6.3147   14.7974   38.3349 C.3         1 MOL       0.1184
     18 CB5         7.1024   13.6873   39.1390 C.3         1 MOL       0.1134
     19 CB6         8.1991   12.9469   38.3461 C.3         1 MOL       0.0730
     20 OB2         6.1331   16.4858   40.9455 O.3         1 MOL      -0.3841
     21 OB3         7.9527   16.5008   37.7359 O.3         1 MOL      -0.3864
     22 OB4         4.9125   14.7141   38.6614 O.3         1 MOL      -0.3401
     23 OB5         7.6088   14.1000   40.4344 O.3         1 MOL      -0.3405
     24 OB6         8.7024   13.6808   37.2329 O.3         1 MOL      -0.3924
     25 CD1         3.9266   14.4161   37.6273 C.3         1 MOL       0.1884
     26 CD2         3.1473   15.6758   37.1424 C.3         1 MOL       0.1341
     27 CD3         2.2679   16.2412   38.3031 C.3         1 MOL       0.1143
     28 CD4         1.3348   15.1359   38.8772 C.3         1 MOL       0.1150
     29 CD5         2.1646   13.8512   39.2319 C.3         1 MOL       0.1133
     30 CD6         1.2817   12.6484   39.6347 C.3         1 MOL       0.0730
     31 OD2         4.0205   16.6528   36.5743 O.3         1 MOL      -0.3841
     32 OD3         1.5157   17.3522   37.8123 O.3         1 MOL      -0.3864
     33 OD4         0.6840   15.5771   40.0937 O.3         1 MOL      -0.3745
     34 OD5         2.9828   13.4352   38.1093 O.3         1 MOL      -0.3405
     35 OD6         1.2683   12.4801   41.0510 O.3         1 MOL      -0.3924
     36 CD7        -0.5164   16.3534   39.9613 C.3         1 MOL       0.0370
     37 H1         14.9791   15.0876   45.3876 H           1 MOL       0.2523
     38 H2         12.4206   13.3392   42.5208 H           1 MOL       0.0843
     39 H3         13.3773   13.8113   40.5668 H           1 MOL       0.2137
     40 H4         11.3151   15.6652   40.8249 H           1 MOL       0.0674
     41 H5         11.2502   13.8478   39.7363 H           1 MOL       0.2103
     42 H6          9.6491   14.1141   42.8737 H           1 MOL       0.0650
     43 H7         10.3101   17.0754   43.1556 H           1 MOL       0.0603
     44 H8         12.0656   16.4816   44.7418 H           1 MOL       0.1812
     45 H9          9.2474   17.0086   45.1331 H           1 MOL       0.0581
     46 H10        10.1615   15.5763   45.6931 H           1 MOL       0.0581
     47 H11         7.8489   15.4555   45.5192 H           1 MOL       0.2095
     48 H12         9.1547   15.4001   39.8211 H           1 MOL       0.0938
     49 H13         7.7356   17.4586   40.1617 H           1 MOL       0.0671
     50 H14         6.0784   16.9689   38.3537 H           1 MOL       0.0648
     51 H15         6.4682   14.5823   37.2735 H           1 MOL       0.0651
     52 H16         6.3868   12.9037   39.4046 H           1 MOL       0.0647
     53 H17         7.7933   12.0120   37.9400 H           1 MOL       0.0584
     54 H18         9.0406   12.6808   39.0004 H           1 MOL       0.0584
     55 H19         5.7415   15.5895   40.8847 H           1 MOL       0.2101
     56 H20         8.1903   17.4209   37.9152 H           1 MOL       0.2100
     57 H21         9.1637   14.4681   37.5980 H           1 MOL       0.2095
     58 H22         4.3954   13.9496   36.7570 H           1 MOL       0.0938
     59 H23         2.4794   15.3626   36.3274 H           1 MOL       0.0671
     60 H24         2.9267   16.6098   39.0934 H           1 MOL       0.0648
     61 H25         0.6066   14.8599   38.0987 H           1 MOL       0.0649
     62 H26         2.8236   14.0817   40.0758 H           1 MOL       0.0647
     63 H27         1.6839   11.7305   39.1909 H           1 MOL       0.0584
     64 H28         0.2559   12.7883   39.2705 H           1 MOL       0.0584
     65 H29         4.1393   17.3280   37.2700 H           1 MOL       0.2101
     66 H30         2.1294   18.1105   37.8819 H           1 MOL       0.2100
     67 H31         0.4321   11.9986   41.2123 H           1 MOL       0.2095
     68 H32        -0.9048   16.5473   40.9635 H           1 MOL       0.0524
     69 H33        -1.2769   15.8029   39.4016 H           1 MOL       0.0524
     70 H34        -0.3118   17.3073   39.4716 H           1 MOL       0.0524
@<TRIPOS>BOND
     1     1     2   2
     2     1     4   1
     3     1    11   1
     4     2     3   1
     5     4     5   1
     6     4     6   1
     7     6     7   1
     8     6     8   1
     9     8     9   1
    10     8    10   1
    11     9    14   1
    12    10    11   1
    13    10    12   1
    14    12    13   1
    15    14    15   1
    16    14    23   1
    17    15    16   1
    18    15    20   1
    19    16    17   1
    20    16    21   1
    21    17    18   1
    22    17    22   1
    23    18    19   1
    24    18    23   1
    25    19    24   1
    26    22    25   1
    27    25    26   1
    28    25    34   1
    29    26    27   1
    30    26    31   1
    31    27    28   1
    32    27    32   1
    33    28    29   1
    34    28    33   1
    35    29    30   1
    36    29    34   1
    37    30    35   1
    38    33    36   1
    39     3    37   1
    40     4    38   1
    41     5    39   1
    42     6    40   1
    43     7    41   1
    44     8    42   1
    45    10    43   1
    46    11    44   1
    47    12    45   1
    48    12    46   1
    49    13    47   1
    50    14    48   1
    51    15    49   1
    52    16    50   1
    53    17    51   1
    54    18    52   1
    55    19    53   1
    56    19    54   1
    57    20    55   1
    58    21    56   1
    59    24    57   1
    60    25    58   1
    61    26    59   1
    62    27    60   1
    63    28    61   1
    64    29    62   1
    65    30    63   1
    66    30    64   1
    67    31    65   1
    68    32    66   1
    69    35    67   1
    70    36    68   1
    71    36    69   1
    72    36    70   1
@<TRIPOS>SUBSTRUCTURE
     1  MOL      1

