@<TRIPOS>MOLECULE
1u33_ligand_064
    70    72
SMALL
GAST_HUCK
****
This file was generated by PARSER (from files_GN.cpp)

@<TRIPOS>ATOM
      1 CA1        10.8967   16.9558   43.8816 C.2         1 MOL       0.1322
      2 NA1         9.7863   17.3273   44.5452 N.2         1 MOL      -0.2068
      3 OA7         9.4788   18.5617   44.8114 O.3         1 MOL      -0.3046
      4 CA2        11.1293   15.5089   43.6530 C.3         1 MOL       0.1504
      5 OA2        10.8321   14.7520   44.8261 O.3         1 MOL      -0.3713
      6 CA3        12.5840   15.1842   43.1953 C.3         1 MOL       0.1237
      7 OA3        12.5757   13.8527   42.6855 O.3         1 MOL      -0.3840
      8 CA4        13.0571   16.2096   42.1212 C.3         1 MOL       0.1169
      9 OA4        14.4077   16.0348   41.6188 O.3         1 MOL      -0.3402
     10 CA5        12.9575   17.6568   42.6958 C.3         1 MOL       0.0902
     11 NA5        11.7416   17.9068   43.4132 N.pl3       1 MOL      -0.2990
     12 CA6        13.1655   18.7268   41.5896 C.3         1 MOL       0.0694
     13 OA6        13.2071   20.0413   42.1302 O.3         1 MOL      -0.3927
     14 CB1        14.7515   14.8331   40.9089 C.3         1 MOL       0.1884
     15 CB2        16.0955   14.9338   40.1407 C.3         1 MOL       0.1341
     16 CB3        15.9733   15.7435   38.8195 C.3         1 MOL       0.1144
     17 CB4        14.7564   15.2869   37.9442 C.3         1 MOL       0.1184
     18 CB5        13.4963   15.2750   38.8641 C.3         1 MOL       0.1134
     19 CB6        12.1659   14.7867   38.2320 C.3         1 MOL       0.0730
     20 OB2        17.1399   15.4468   40.9691 O.3         1 MOL      -0.3841
     21 OB3        17.2148   15.5581   38.1464 O.3         1 MOL      -0.3864
     22 OB4        14.4841   16.1843   36.8347 O.3         1 MOL      -0.3401
     23 OB5        13.7289   14.3991   39.9940 O.3         1 MOL      -0.3405
     24 OB6        11.6428   15.7003   37.2683 O.3         1 MOL      -0.3924
     25 CD1        15.1112   15.9737   35.5389 C.3         1 MOL       0.1884
     26 CD2        14.4179   16.8449   34.4609 C.3         1 MOL       0.1341
     27 CD3        12.9717   16.3357   34.2180 C.3         1 MOL       0.1143
     28 CD4        12.9496   14.8120   33.8937 C.3         1 MOL       0.1150
     29 CD5        13.7938   14.0088   34.9388 C.3         1 MOL       0.1133
     30 CD6        13.9613   12.5237   34.5120 C.3         1 MOL       0.0730
     31 OD2        14.4124   18.2194   34.8417 O.3         1 MOL      -0.3841
     32 OD3        12.3759   17.0796   33.1556 O.3         1 MOL      -0.3864
     33 OD4        11.5824   14.3289   33.9670 O.3         1 MOL      -0.3745
     34 OD5        15.1109   14.5916   35.1062 O.3         1 MOL      -0.3405
     35 OD6        14.9183   11.8385   35.3216 O.3         1 MOL      -0.3924
     36 CD7        10.9533   13.9522   32.7357 C.3         1 MOL       0.0370
     37 H1          9.1398   18.9352   43.9666 H           1 MOL       0.2523
     38 H2         10.4263   15.1889   42.8743 H           1 MOL       0.0843
     39 H3         11.5402   14.9761   45.4641 H           1 MOL       0.2137
     40 H4         13.2639   15.2309   44.0464 H           1 MOL       0.0674
     41 H5         12.5341   13.2663   43.4814 H           1 MOL       0.2103
     42 H6         12.3402   16.1483   41.2988 H           1 MOL       0.0650
     43 H7         13.7600   17.7810   43.4219 H           1 MOL       0.0603
     44 H8         11.5402   18.8262   43.6376 H           1 MOL       0.1812
     45 H9         12.3695   18.6753   40.8436 H           1 MOL       0.0581
     46 H10        14.1195   18.5566   41.0836 H           1 MOL       0.0581
     47 H11        12.3199   20.4217   41.9585 H           1 MOL       0.2095
     48 H12        14.8846   14.0541   41.6524 H           1 MOL       0.0938
     49 H13        16.3893   13.9146   39.8781 H           1 MOL       0.0671
     50 H14        15.8617   16.8083   39.0466 H           1 MOL       0.0648
     51 H15        14.9238   14.2611   37.6001 H           1 MOL       0.0651
     52 H16        13.3135   16.3043   39.1956 H           1 MOL       0.0647
     53 H17        11.4144   14.6643   39.0232 H           1 MOL       0.0584
     54 H18        12.3261   13.8233   37.7275 H           1 MOL       0.0584
     55 H19        17.2993   16.3752   40.7002 H           1 MOL       0.2101
     56 H20        16.9935   15.3225   37.2301 H           1 MOL       0.2100
     57 H21        11.4226   16.5057   37.7805 H           1 MOL       0.2095
     58 H22        16.1479   16.3069   35.5717 H           1 MOL       0.0938
     59 H23        14.9859   16.7699   33.5303 H           1 MOL       0.0671
     60 H24        12.3848   16.5194   35.1184 H           1 MOL       0.0648
     61 H25        13.4032   14.6662   32.9026 H           1 MOL       0.0649
     62 H26        13.2718   14.0058   35.9206 H           1 MOL       0.0647
     63 H27        14.3075   12.4680   33.4742 H           1 MOL       0.0584
     64 H28        12.9992   12.0004   34.5802 H           1 MOL       0.0584
     65 H29        14.1613   18.2294   35.7894 H           1 MOL       0.2101
     66 H30        11.4254   16.8427   33.1829 H           1 MOL       0.2100
     67 H31        14.4138   11.1861   35.8585 H           1 MOL       0.2095
     68 H32         9.9354   13.6438   32.9695 H           1 MOL       0.0524
     69 H33        11.4735   13.1113   32.2771 H           1 MOL       0.0524
     70 H34        10.9111   14.7847   32.0337 H           1 MOL       0.0524
@<TRIPOS>BOND
     1     1     2   2
     2     1     4   1
     3     1    11   1
     4     2     3   1
     5     4     5   1
     6     4     6   1
     7     6     7   1
     8     6     8   1
     9     8     9   1
    10     8    10   1
    11     9    14   1
    12    10    11   1
    13    10    12   1
    14    12    13   1
    15    14    15   1
    16    14    23   1
    17    15    16   1
    18    15    20   1
    19    16    17   1
    20    16    21   1
    21    17    18   1
    22    17    22   1
    23    18    19   1
    24    18    23   1
    25    19    24   1
    26    22    25   1
    27    25    26   1
    28    25    34   1
    29    26    27   1
    30    26    31   1
    31    27    28   1
    32    27    32   1
    33    28    29   1
    34    28    33   1
    35    29    30   1
    36    29    34   1
    37    30    35   1
    38    33    36   1
    39     3    37   1
    40     4    38   1
    41     5    39   1
    42     6    40   1
    43     7    41   1
    44     8    42   1
    45    10    43   1
    46    11    44   1
    47    12    45   1
    48    12    46   1
    49    13    47   1
    50    14    48   1
    51    15    49   1
    52    16    50   1
    53    17    51   1
    54    18    52   1
    55    19    53   1
    56    19    54   1
    57    20    55   1
    58    21    56   1
    59    24    57   1
    60    25    58   1
    61    26    59   1
    62    27    60   1
    63    28    61   1
    64    29    62   1
    65    30    63   1
    66    30    64   1
    67    31    65   1
    68    32    66   1
    69    35    67   1
    70    36    68   1
    71    36    69   1
    72    36    70   1
@<TRIPOS>SUBSTRUCTURE
     1  MOL      1

