@<TRIPOS>MOLECULE
1u33_ligand_018
    70    72
SMALL
GAST_HUCK
****
This file was generated by PARSER (from files_GN.cpp)

@<TRIPOS>ATOM
      1 CA1         2.5227   14.4711   40.0502 C.2         1 MOL       0.1322
      2 NA1         1.3537   13.9619   39.6105 N.2         1 MOL      -0.2068
      3 OA7         0.2387   14.0114   40.2850 O.3         1 MOL      -0.3046
      4 CA2         2.7051   15.0659   41.4010 C.3         1 MOL       0.1504
      5 OA2         2.8200   16.4844   41.2758 O.3         1 MOL      -0.3713
      6 CA3         3.9525   14.4326   42.0905 C.3         1 MOL       0.1237
      7 OA3         3.5482   13.2015   42.6945 O.3         1 MOL      -0.3840
      8 CA4         5.1777   14.1745   41.1353 C.3         1 MOL       0.1169
      9 OA4         6.3495   14.8175   41.6895 O.3         1 MOL      -0.3402
     10 CA5         4.9373   14.6736   39.6731 C.3         1 MOL       0.0902
     11 NA5         3.6084   14.3167   39.2555 N.pl3       1 MOL      -0.2990
     12 CA6         5.9725   14.1086   38.6655 C.3         1 MOL       0.0694
     13 OA6         5.7010   14.5540   37.3399 O.3         1 MOL      -0.3927
     14 CB1         7.2423   13.9900   42.4772 C.3         1 MOL       0.1884
     15 CB2         7.7352   14.7100   43.7610 C.3         1 MOL       0.1341
     16 CB3         8.7352   15.8431   43.4127 C.3         1 MOL       0.1144
     17 CB4         9.8730   15.3125   42.4923 C.3         1 MOL       0.1184
     18 CB5         9.2458   14.6373   41.2322 C.3         1 MOL       0.1134
     19 CB6        10.2839   14.0104   40.2636 C.3         1 MOL       0.0730
     20 OB2         6.6203   15.2150   44.4907 O.3         1 MOL      -0.3841
     21 OB3         9.2836   16.3779   44.6148 O.3         1 MOL      -0.3864
     22 OB4        10.7372   16.4122   42.1232 O.3         1 MOL      -0.3401
     23 OB5         8.3551   13.5777   41.6558 O.3         1 MOL      -0.3405
     24 OB6        10.7409   14.9527   39.2970 O.3         1 MOL      -0.3924
     25 CD1        11.9484   16.6053   42.8976 C.3         1 MOL       0.1884
     26 CD2        12.2725   18.1089   43.0917 C.3         1 MOL       0.1341
     27 CD3        12.6262   18.7583   41.7301 C.3         1 MOL       0.1143
     28 CD4        13.7553   17.9758   41.0035 C.3         1 MOL       0.1150
     29 CD5        13.4397   16.4441   40.9510 C.3         1 MOL       0.1133
     30 CD6        14.6301   15.5734   40.4744 C.3         1 MOL       0.0730
     31 OD2        11.2039   18.7886   43.7552 O.3         1 MOL      -0.3841
     32 OD3        13.0454   20.1037   41.9421 O.3         1 MOL      -0.3864
     33 OD4        14.1177   18.5687   39.7328 O.3         1 MOL      -0.3745
     34 OD5        13.0591   15.9453   42.2578 O.3         1 MOL      -0.3405
     35 OD6        15.1610   16.0049   39.2233 O.3         1 MOL      -0.3924
     36 CD7        13.2403   18.4800   38.5938 C.3         1 MOL       0.0370
     37 H1         -0.0705   13.0835   40.3459 H           1 MOL       0.2523
     38 H2          1.8250   14.8992   42.0286 H           1 MOL       0.0843
     39 H3          3.7211   16.6685   40.9452 H           1 MOL       0.2137
     40 H4          4.2442   15.0901   42.9121 H           1 MOL       0.0674
     41 H5          4.3671   12.8032   43.0668 H           1 MOL       0.2103
     42 H6          5.3342   13.0926   41.0510 H           1 MOL       0.0650
     43 H7          5.0245   15.7627   39.6521 H           1 MOL       0.0603
     44 H8          3.4900   13.8584   38.4068 H           1 MOL       0.1812
     45 H9          5.9528   13.0167   38.6725 H           1 MOL       0.0581
     46 H10         6.9762   14.4373   38.9371 H           1 MOL       0.0581
     47 H11         5.8689   15.5200   37.3524 H           1 MOL       0.2095
     48 H12         6.7413   13.0776   42.8124 H           1 MOL       0.0938
     49 H13         8.2416   13.9748   44.3948 H           1 MOL       0.0671
     50 H14         8.2028   16.6494   42.9003 H           1 MOL       0.0648
     51 H15        10.4318   14.5352   43.0282 H           1 MOL       0.0651
     52 H16         8.6784   15.3856   40.6702 H           1 MOL       0.0647
     53 H17         9.8323   13.1783   39.7140 H           1 MOL       0.0584
     54 H18        11.1469   13.6231   40.8133 H           1 MOL       0.0584
     55 H19         6.9980   15.6102   45.3040 H           1 MOL       0.2101
     56 H20         8.5374   16.7932   45.0975 H           1 MOL       0.2100
     57 H21         9.9784   15.0984   38.6976 H           1 MOL       0.2095
     58 H22        11.8610   16.1683   43.8976 H           1 MOL       0.0938
     59 H23        13.1418   18.1826   43.7519 H           1 MOL       0.0671
     60 H24        11.7246   18.7683   41.1134 H           1 MOL       0.0648
     61 H25        14.6473   18.0883   41.6204 H           1 MOL       0.0649
     62 H26        12.6103   16.2840   40.2609 H           1 MOL       0.0647
     63 H27        14.2816   14.5471   40.3411 H           1 MOL       0.0584
     64 H28        15.4267   15.5689   41.2207 H           1 MOL       0.0584
     65 H29        10.8104   19.4118   43.1103 H           1 MOL       0.2101
     66 H30        12.2289   20.6369   41.8263 H           1 MOL       0.2100
     67 H31        15.6657   16.8200   39.4226 H           1 MOL       0.2095
     68 H32        13.7205   18.9989   37.7654 H           1 MOL       0.0524
     69 H33        12.2832   18.9631   38.7809 H           1 MOL       0.0524
     70 H34        13.0736   17.4460   38.2964 H           1 MOL       0.0524
@<TRIPOS>BOND
     1     1     2   2
     2     1     4   1
     3     1    11   1
     4     2     3   1
     5     4     5   1
     6     4     6   1
     7     6     7   1
     8     6     8   1
     9     8     9   1
    10     8    10   1
    11     9    14   1
    12    10    11   1
    13    10    12   1
    14    12    13   1
    15    14    15   1
    16    14    23   1
    17    15    16   1
    18    15    20   1
    19    16    17   1
    20    16    21   1
    21    17    18   1
    22    17    22   1
    23    18    19   1
    24    18    23   1
    25    19    24   1
    26    22    25   1
    27    25    26   1
    28    25    34   1
    29    26    27   1
    30    26    31   1
    31    27    28   1
    32    27    32   1
    33    28    29   1
    34    28    33   1
    35    29    30   1
    36    29    34   1
    37    30    35   1
    38    33    36   1
    39     3    37   1
    40     4    38   1
    41     5    39   1
    42     6    40   1
    43     7    41   1
    44     8    42   1
    45    10    43   1
    46    11    44   1
    47    12    45   1
    48    12    46   1
    49    13    47   1
    50    14    48   1
    51    15    49   1
    52    16    50   1
    53    17    51   1
    54    18    52   1
    55    19    53   1
    56    19    54   1
    57    20    55   1
    58    21    56   1
    59    24    57   1
    60    25    58   1
    61    26    59   1
    62    27    60   1
    63    28    61   1
    64    29    62   1
    65    30    63   1
    66    30    64   1
    67    31    65   1
    68    32    66   1
    69    35    67   1
    70    36    68   1
    71    36    69   1
    72    36    70   1
@<TRIPOS>SUBSTRUCTURE
     1  MOL      1

