@<TRIPOS>MOLECULE
1u33_ligand_024
    70    72
SMALL
GAST_HUCK
****
This file was generated by PARSER (from files_GN.cpp)

@<TRIPOS>ATOM
      1 CA1        10.5247   18.1929   33.5367 C.2         1 MOL       0.1322
      2 NA1        10.7054   19.0366   32.5046 N.2         1 MOL      -0.2068
      3 OA7        11.8147   19.2125   31.8542 O.3         1 MOL      -0.3046
      4 CA2         9.2032   18.1793   34.2049 C.3         1 MOL       0.1504
      5 OA2         8.7089   19.5184   34.2738 O.3         1 MOL      -0.3713
      6 CA3         9.2637   17.5783   35.6387 C.3         1 MOL       0.1237
      7 OA3         7.9165   17.3841   36.0707 O.3         1 MOL      -0.3840
      8 CA4        10.0836   16.2480   35.6738 C.3         1 MOL       0.1169
      9 OA4        10.3500   15.6926   36.9967 O.3         1 MOL      -0.3402
     10 CA5        11.4947   16.4753   35.0287 C.3         1 MOL       0.0902
     11 NA5        11.5367   17.3910   33.9311 N.pl3       1 MOL      -0.2990
     12 CA6        12.1681   15.1418   34.6056 C.3         1 MOL       0.0694
     13 OA6        11.4423   14.4730   33.5788 O.3         1 MOL      -0.3927
     14 CB1         9.3273   15.5632   38.0102 C.3         1 MOL       0.1884
     15 CB2         9.4809   16.7389   39.0107 C.3         1 MOL       0.1341
     16 CB3         8.4461   16.5963   40.1604 C.3         1 MOL       0.1144
     17 CB4         8.5443   15.2086   40.8536 C.3         1 MOL       0.1184
     18 CB5         8.6634   14.0258   39.8330 C.3         1 MOL       0.1134
     19 CB6         7.3157   13.3825   39.3904 C.3         1 MOL       0.0730
     20 OB2        10.8195   16.7691   39.5277 O.3         1 MOL      -0.3841
     21 OB3         7.1314   16.8407   39.6626 O.3         1 MOL      -0.3864
     22 OB4         9.7527   15.2077   41.6285 O.3         1 MOL      -0.3401
     23 OB5         9.5288   14.3199   38.7069 O.3         1 MOL      -0.3405
     24 OB6         6.3988   14.2818   38.7712 O.3         1 MOL      -0.3924
     25 CD1         9.7572   14.9197   43.0394 C.3         1 MOL       0.1884
     26 CD2         9.3913   16.1234   43.9385 C.3         1 MOL       0.1341
     27 CD3        10.3892   17.2905   43.7013 C.3         1 MOL       0.1143
     28 CD4        11.8873   16.8436   43.7999 C.3         1 MOL       0.1150
     29 CD5        12.1354   15.4417   43.1407 C.3         1 MOL       0.1133
     30 CD6        13.4441   14.7544   43.6014 C.3         1 MOL       0.0730
     31 OD2         8.0457   16.5320   43.7055 O.3         1 MOL      -0.3841
     32 OD3        10.1335   18.3344   44.6489 O.3         1 MOL      -0.3864
     33 OD4        12.8100   17.7470   43.1386 O.3         1 MOL      -0.3745
     34 OD5        11.0752   14.4972   43.4237 O.3         1 MOL      -0.3405
     35 OD6        14.5660   15.1152   42.7999 O.3         1 MOL      -0.3924
     36 CD7        12.6424   19.1634   43.3306 C.3         1 MOL       0.0370
     37 H1         11.8307   20.1823   31.6853 H           1 MOL       0.2523
     38 H2          8.5310   17.5988   33.5728 H           1 MOL       0.0843
     39 H3          7.7577   19.4499   34.5148 H           1 MOL       0.2137
     40 H4          9.7338   18.3094   36.3108 H           1 MOL       0.0674
     41 H5          7.8348   17.8899   36.9066 H           1 MOL       0.2103
     42 H6          9.5219   15.5056   35.0973 H           1 MOL       0.0650
     43 H7         12.1365   16.9251   35.7958 H           1 MOL       0.0603
     44 H8         12.3839   17.4796   33.4746 H           1 MOL       0.1812
     45 H9         12.2551   14.4657   35.4613 H           1 MOL       0.0581
     46 H10        13.1778   15.3419   34.2376 H           1 MOL       0.0581
     47 H11        11.5587   15.0259   32.7780 H           1 MOL       0.2095
     48 H12         8.3404   15.5597   37.5482 H           1 MOL       0.0938
     49 H13         9.3271   17.6844   38.4839 H           1 MOL       0.0671
     50 H14         8.6336   17.3807   40.8930 H           1 MOL       0.0648
     51 H15         7.6669   15.0627   41.4860 H           1 MOL       0.0651
     52 H16         9.1673   13.2115   40.3593 H           1 MOL       0.0647
     53 H17         6.8118   12.9338   40.2569 H           1 MOL       0.0584
     54 H18         7.5241   12.5771   38.6769 H           1 MOL       0.0584
     55 H19        10.8752   17.6075   40.0369 H           1 MOL       0.2101
     56 H20         7.1468   17.7638   39.3339 H           1 MOL       0.2100
     57 H21         6.1834   14.9376   39.4681 H           1 MOL       0.2095
     58 H22         9.0845   14.0882   43.2589 H           1 MOL       0.0938
     59 H23         9.4562   15.8054   44.9864 H           1 MOL       0.0671
     60 H24        10.2179   17.7045   42.7034 H           1 MOL       0.0648
     61 H25        12.1598   16.7699   44.8568 H           1 MOL       0.0649
     62 H26        12.2100   15.5639   42.0540 H           1 MOL       0.0647
     63 H27        13.3218   13.6682   43.5348 H           1 MOL       0.0584
     64 H28        13.6543   15.0106   44.6417 H           1 MOL       0.0584
     65 H29         7.7322   16.9210   44.5531 H           1 MOL       0.2101
     66 H30         9.1743   18.3155   44.8244 H           1 MOL       0.2100
     67 H31        15.3273   14.6721   43.2347 H           1 MOL       0.2095
     68 H32        13.5052   19.6663   42.9001 H           1 MOL       0.0524
     69 H33        12.5652   19.4250   44.3930 H           1 MOL       0.0524
     70 H34        11.7508   19.5210   42.7956 H           1 MOL       0.0524
@<TRIPOS>BOND
     1     1     2   2
     2     1     4   1
     3     1    11   1
     4     2     3   1
     5     4     5   1
     6     4     6   1
     7     6     7   1
     8     6     8   1
     9     8     9   1
    10     8    10   1
    11     9    14   1
    12    10    11   1
    13    10    12   1
    14    12    13   1
    15    14    15   1
    16    14    23   1
    17    15    16   1
    18    15    20   1
    19    16    17   1
    20    16    21   1
    21    17    18   1
    22    17    22   1
    23    18    19   1
    24    18    23   1
    25    19    24   1
    26    22    25   1
    27    25    26   1
    28    25    34   1
    29    26    27   1
    30    26    31   1
    31    27    28   1
    32    27    32   1
    33    28    29   1
    34    28    33   1
    35    29    30   1
    36    29    34   1
    37    30    35   1
    38    33    36   1
    39     3    37   1
    40     4    38   1
    41     5    39   1
    42     6    40   1
    43     7    41   1
    44     8    42   1
    45    10    43   1
    46    11    44   1
    47    12    45   1
    48    12    46   1
    49    13    47   1
    50    14    48   1
    51    15    49   1
    52    16    50   1
    53    17    51   1
    54    18    52   1
    55    19    53   1
    56    19    54   1
    57    20    55   1
    58    21    56   1
    59    24    57   1
    60    25    58   1
    61    26    59   1
    62    27    60   1
    63    28    61   1
    64    29    62   1
    65    30    63   1
    66    30    64   1
    67    31    65   1
    68    32    66   1
    69    35    67   1
    70    36    68   1
    71    36    69   1
    72    36    70   1
@<TRIPOS>SUBSTRUCTURE
     1  MOL      1

