@<TRIPOS>MOLECULE
1u33_ligand_013
    70    72
SMALL
GAST_HUCK
****
This file was generated by PARSER (from files_GN.cpp)

@<TRIPOS>ATOM
      1 CA1        13.9847   16.9865   41.4214 C.2         1 MOL       0.1322
      2 NA1        14.9618   17.3622   40.5720 N.2         1 MOL      -0.2068
      3 OA7        15.8271   16.5530   40.0338 O.3         1 MOL      -0.3046
      4 CA2        13.8014   15.5719   41.8375 C.3         1 MOL       0.1504
      5 OA2        13.2321   14.8430   40.7518 O.3         1 MOL      -0.3713
      6 CA3        12.9078   15.4445   43.1054 C.3         1 MOL       0.1237
      7 OA3        13.6950   15.7837   44.2471 O.3         1 MOL      -0.3840
      8 CA4        11.6343   16.3385   43.0139 C.3         1 MOL       0.1169
      9 OA4        10.8020   15.6930   42.0208 O.3         1 MOL      -0.3402
     10 CA5        12.0407   17.8319   42.7207 C.3         1 MOL       0.0902
     11 NA5        13.1776   17.9792   41.8572 N.pl3       1 MOL      -0.2990
     12 CA6        12.2412   18.6943   43.9988 C.3         1 MOL       0.0694
     13 OA6        10.9906   19.1827   44.4906 O.3         1 MOL      -0.3927
     14 CB1         9.5014   16.2265   41.6881 C.3         1 MOL       0.1884
     15 CB2         8.6384   15.1499   40.9806 C.3         1 MOL       0.1341
     16 CB3         9.1976   14.8170   39.5621 C.3         1 MOL       0.1144
     17 CB4         9.4638   16.1075   38.7217 C.3         1 MOL       0.1184
     18 CB5        10.3030   17.1116   39.5739 C.3         1 MOL       0.1134
     19 CB6        10.6112   18.4881   38.9084 C.3         1 MOL       0.0730
     20 OB2         8.5513   13.9802   41.7966 O.3         1 MOL      -0.3841
     21 OB3         8.2563   13.9759   38.8936 O.3         1 MOL      -0.3864
     22 OB4        10.1953   15.8764   37.4962 O.3         1 MOL      -0.3401
     23 OB5         9.5951   17.3618   40.8097 O.3         1 MOL      -0.3405
     24 OB6        12.0167   18.7510   38.8543 O.3         1 MOL      -0.3924
     25 CD1         9.5030   15.3543   36.3383 C.3         1 MOL       0.1884
     26 CD2        10.3952   15.5172   35.0818 C.3         1 MOL       0.1341
     27 CD3        10.4901   17.0141   34.6754 C.3         1 MOL       0.1143
     28 CD4         9.0814   17.6667   34.5315 C.3         1 MOL       0.1150
     29 CD5         8.2354   17.3697   35.8081 C.3         1 MOL       0.1133
     30 CD6         6.7736   17.8885   35.7535 C.3         1 MOL       0.0730
     31 OD2        11.6925   14.9727   35.3334 O.3         1 MOL      -0.3841
     32 OD3        11.2303   17.1208   33.4633 O.3         1 MOL      -0.3864
     33 OD4         9.1915   19.1036   34.4173 O.3         1 MOL      -0.3745
     34 OD5         8.2089   15.9525   36.1008 O.3         1 MOL      -0.3405
     35 OD6         5.9903   17.1968   34.7869 O.3         1 MOL      -0.3924
     36 CD7         9.1136   19.6605   33.0969 C.3         1 MOL       0.0370
     37 H1         16.6837   17.0071   40.1541 H           1 MOL       0.2523
     38 H2         14.7756   15.1300   42.0578 H           1 MOL       0.0843
     39 H3         13.9313   14.8070   40.0634 H           1 MOL       0.2137
     40 H4         12.6169   14.3946   43.2315 H           1 MOL       0.0674
     41 H5         13.1086   15.6638   45.0213 H           1 MOL       0.2103
     42 H6         11.1019   16.2765   43.9645 H           1 MOL       0.0650
     43 H7         11.2292   18.3222   42.1862 H           1 MOL       0.0603
     44 H8         13.3660   18.8751   41.5360 H           1 MOL       0.1812
     45 H9         12.8614   19.5664   43.7769 H           1 MOL       0.0581
     46 H10        12.7293   18.1169   44.7851 H           1 MOL       0.0581
     47 H11        10.5236   19.5372   43.7054 H           1 MOL       0.2095
     48 H12         8.9806   16.5410   42.5962 H           1 MOL       0.0938
     49 H13         7.6199   15.5451   40.8686 H           1 MOL       0.0671
     50 H14        10.1337   14.2593   39.6724 H           1 MOL       0.0648
     51 H15         8.5017   16.5854   38.5072 H           1 MOL       0.0651
     52 H16        11.2730   16.6483   39.7861 H           1 MOL       0.0647
     53 H17        10.1461   19.3094   39.4680 H           1 MOL       0.0584
     54 H18        10.2252   18.5279   37.8901 H           1 MOL       0.0584
     55 H19         7.7427   13.5115   41.4942 H           1 MOL       0.2101
     56 H20         8.3781   13.0805   39.2787 H           1 MOL       0.2100
     57 H21        12.1361   19.2284   38.0041 H           1 MOL       0.2095
     58 H22         9.3474   14.2846   36.4817 H           1 MOL       0.0938
     59 H23         9.9526   14.9468   34.2585 H           1 MOL       0.0671
     60 H24        11.0494   17.5530   35.4463 H           1 MOL       0.0648
     61 H25         8.5703   17.2193   33.6701 H           1 MOL       0.0649
     62 H26         8.6973   17.8899   36.6449 H           1 MOL       0.0647
     63 H27         6.7537   18.9581   35.5278 H           1 MOL       0.0584
     64 H28         6.3100   17.7480   36.7354 H           1 MOL       0.0584
     65 H29        12.1732   15.0211   34.4803 H           1 MOL       0.2101
     66 H30        10.6964   16.6474   32.7900 H           1 MOL       0.2100
     67 H31         6.3022   17.5399   33.9236 H           1 MOL       0.2095
     68 H32         9.2308   20.7412   33.1805 H           1 MOL       0.0524
     69 H33         8.1393   19.4524   32.6474 H           1 MOL       0.0524
     70 H34         9.9042   19.2729   32.4549 H           1 MOL       0.0524
@<TRIPOS>BOND
     1     1     2   2
     2     1     4   1
     3     1    11   1
     4     2     3   1
     5     4     5   1
     6     4     6   1
     7     6     7   1
     8     6     8   1
     9     8     9   1
    10     8    10   1
    11     9    14   1
    12    10    11   1
    13    10    12   1
    14    12    13   1
    15    14    15   1
    16    14    23   1
    17    15    16   1
    18    15    20   1
    19    16    17   1
    20    16    21   1
    21    17    18   1
    22    17    22   1
    23    18    19   1
    24    18    23   1
    25    19    24   1
    26    22    25   1
    27    25    26   1
    28    25    34   1
    29    26    27   1
    30    26    31   1
    31    27    28   1
    32    27    32   1
    33    28    29   1
    34    28    33   1
    35    29    30   1
    36    29    34   1
    37    30    35   1
    38    33    36   1
    39     3    37   1
    40     4    38   1
    41     5    39   1
    42     6    40   1
    43     7    41   1
    44     8    42   1
    45    10    43   1
    46    11    44   1
    47    12    45   1
    48    12    46   1
    49    13    47   1
    50    14    48   1
    51    15    49   1
    52    16    50   1
    53    17    51   1
    54    18    52   1
    55    19    53   1
    56    19    54   1
    57    20    55   1
    58    21    56   1
    59    24    57   1
    60    25    58   1
    61    26    59   1
    62    27    60   1
    63    28    61   1
    64    29    62   1
    65    30    63   1
    66    30    64   1
    67    31    65   1
    68    32    66   1
    69    35    67   1
    70    36    68   1
    71    36    69   1
    72    36    70   1
@<TRIPOS>SUBSTRUCTURE
     1  MOL      1

