@<TRIPOS>MOLECULE
1u33_ligand_066
    70    72
SMALL
GAST_HUCK
****
This file was generated by PARSER (from files_GN.cpp)

@<TRIPOS>ATOM
      1 CA1         6.1538   15.5944   39.4463 C.2         1 MOL       0.1322
      2 NA1         5.1142   16.2504   38.8974 N.2         1 MOL      -0.2068
      3 OA7         4.9171   16.3881   37.6169 O.3         1 MOL      -0.3046
      4 CA2         6.2460   15.5869   40.9218 C.3         1 MOL       0.1504
      5 OA2         6.5941   16.9016   41.3619 O.3         1 MOL      -0.3713
      6 CA3         7.2721   14.5519   41.4552 C.3         1 MOL       0.1237
      7 OA3         6.6686   13.2633   41.4558 O.3         1 MOL      -0.3840
      8 CA4         8.5865   14.5579   40.6197 C.3         1 MOL       0.1169
      9 OA4         9.3009   15.8139   40.7163 O.3         1 MOL      -0.3402
     10 CA5         8.2840   14.3600   39.0906 C.3         1 MOL       0.0902
     11 NA5         7.0993   15.0414   38.6481 N.pl3       1 MOL      -0.2990
     12 CA6         8.2477   12.8928   38.5758 C.3         1 MOL       0.0694
     13 OA6         7.0894   12.1639   38.9688 O.3         1 MOL      -0.3927
     14 CB1         9.6980   16.3726   41.9944 C.3         1 MOL       0.1884
     15 CB2        10.4529   17.7013   41.7521 C.3         1 MOL       0.1341
     16 CB3        11.8709   17.4155   41.1916 C.3         1 MOL       0.1144
     17 CB4        12.6534   16.4201   42.0984 C.3         1 MOL       0.1184
     18 CB5        11.8050   15.1353   42.4020 C.3         1 MOL       0.1134
     19 CB6        12.4283   14.2064   43.4887 C.3         1 MOL       0.0730
     20 OB2         9.7277   18.5099   40.8183 O.3         1 MOL      -0.3841
     21 OB3        12.6016   18.6460   41.0893 O.3         1 MOL      -0.3864
     22 OB4        13.9900   16.2589   41.5541 O.3         1 MOL      -0.3401
     23 OB5        10.4665   15.4787   42.8337 O.3         1 MOL      -0.3405
     24 OB6        11.6236   14.0393   44.6585 O.3         1 MOL      -0.3924
     25 CD1        14.4193   15.1078   40.7931 C.3         1 MOL       0.1884
     26 CD2        15.9033   15.2609   40.3627 C.3         1 MOL       0.1341
     27 CD3        16.0387   16.2174   39.1508 C.3         1 MOL       0.1143
     28 CD4        15.1098   15.7722   37.9854 C.3         1 MOL       0.1150
     29 CD5        13.6497   15.6747   38.5186 C.3         1 MOL       0.1133
     30 CD6        12.6387   15.1332   37.4819 C.3         1 MOL       0.0730
     31 OD2        16.6756   15.7223   41.4717 O.3         1 MOL      -0.3841
     32 OD3        17.3966   16.2148   38.7077 O.3         1 MOL      -0.3864
     33 OD4        15.1820   16.7747   36.9453 O.3         1 MOL      -0.3745
     34 OD5        13.5717   14.8007   39.6642 O.3         1 MOL      -0.3405
     35 OD6        13.0771   13.9165   36.8726 O.3         1 MOL      -0.3924
     36 CD7        15.4910   16.3001   35.6246 C.3         1 MOL       0.0370
     37 H1          4.6500   17.3285   37.5292 H           1 MOL       0.2523
     38 H2          5.2672   15.3457   41.3478 H           1 MOL       0.0843
     39 H3          5.8942   17.4925   40.9960 H           1 MOL       0.2137
     40 H4          7.4876   14.7729   42.5018 H           1 MOL       0.0674
     41 H5          6.7565   12.9187   42.3757 H           1 MOL       0.2103
     42 H6          9.2534   13.7612   40.9665 H           1 MOL       0.0650
     43 H7          9.1064   14.8247   38.5332 H           1 MOL       0.0603
     44 H8          6.9626   15.1024   37.6898 H           1 MOL       0.1812
     45 H9          9.1322   12.3526   38.9276 H           1 MOL       0.0581
     46 H10         8.2782   12.8875   37.4814 H           1 MOL       0.0581
     47 H11         6.3444   12.5721   38.4803 H           1 MOL       0.2095
     48 H12         8.8052   16.6414   42.5634 H           1 MOL       0.0938
     49 H13        10.5421   18.2502   42.6958 H           1 MOL       0.0671
     50 H14        11.7649   16.9984   40.1824 H           1 MOL       0.0648
     51 H15        12.7982   16.9281   43.0546 H           1 MOL       0.0651
     52 H16        11.7063   14.5567   41.4778 H           1 MOL       0.0647
     53 H17        13.4049   14.5524   43.8179 H           1 MOL       0.0584
     54 H18        12.5583   13.2060   43.0751 H           1 MOL       0.0584
     55 H19         8.8129   18.5455   41.1645 H           1 MOL       0.2101
     56 H20        11.9325   19.3654   41.0465 H           1 MOL       0.2100
     57 H21        12.0528   14.5590   45.3737 H           1 MOL       0.2095
     58 H22        14.3865   14.2333   41.4397 H           1 MOL       0.0938
     59 H23        16.2866   14.2786   40.0742 H           1 MOL       0.0671
     60 H24        15.7747   17.2367   39.4640 H           1 MOL       0.0648
     61 H25        15.4462   14.7774   37.6497 H           1 MOL       0.0649
     62 H26        13.3268   16.6826   38.7995 H           1 MOL       0.0647
     63 H27        12.4683   15.8749   36.6984 H           1 MOL       0.0584
     64 H28        11.6811   14.9413   37.9716 H           1 MOL       0.0584
     65 H29        17.4045   16.2505   41.0937 H           1 MOL       0.2101
     66 H30        17.7833   17.0502   39.0415 H           1 MOL       0.2100
     67 H31        13.0522   13.2371   37.5808 H           1 MOL       0.2095
     68 H32        15.4196   17.1384   34.9310 H           1 MOL       0.0524
     69 H33        14.7895   15.5253   35.3002 H           1 MOL       0.0524
     70 H34        16.5081   15.9062   35.5964 H           1 MOL       0.0524
@<TRIPOS>BOND
     1     1     2   2
     2     1     4   1
     3     1    11   1
     4     2     3   1
     5     4     5   1
     6     4     6   1
     7     6     7   1
     8     6     8   1
     9     8     9   1
    10     8    10   1
    11     9    14   1
    12    10    11   1
    13    10    12   1
    14    12    13   1
    15    14    15   1
    16    14    23   1
    17    15    16   1
    18    15    20   1
    19    16    17   1
    20    16    21   1
    21    17    18   1
    22    17    22   1
    23    18    19   1
    24    18    23   1
    25    19    24   1
    26    22    25   1
    27    25    26   1
    28    25    34   1
    29    26    27   1
    30    26    31   1
    31    27    28   1
    32    27    32   1
    33    28    29   1
    34    28    33   1
    35    29    30   1
    36    29    34   1
    37    30    35   1
    38    33    36   1
    39     3    37   1
    40     4    38   1
    41     5    39   1
    42     6    40   1
    43     7    41   1
    44     8    42   1
    45    10    43   1
    46    11    44   1
    47    12    45   1
    48    12    46   1
    49    13    47   1
    50    14    48   1
    51    15    49   1
    52    16    50   1
    53    17    51   1
    54    18    52   1
    55    19    53   1
    56    19    54   1
    57    20    55   1
    58    21    56   1
    59    24    57   1
    60    25    58   1
    61    26    59   1
    62    27    60   1
    63    28    61   1
    64    29    62   1
    65    30    63   1
    66    30    64   1
    67    31    65   1
    68    32    66   1
    69    35    67   1
    70    36    68   1
    71    36    69   1
    72    36    70   1
@<TRIPOS>SUBSTRUCTURE
     1  MOL      1

