@<TRIPOS>MOLECULE
1u33_ligand_036
    70    72
SMALL
GAST_HUCK
****
This file was generated by PARSER (from files_GN.cpp)

@<TRIPOS>ATOM
      1 CA1         3.0318   12.9562   40.5203 C.2         1 MOL       0.1322
      2 NA1         1.7463   12.5567   40.4857 N.2         1 MOL      -0.2068
      3 OA7         1.1283   12.1039   39.4280 O.3         1 MOL      -0.3046
      4 CA2         3.5854   13.3948   41.8184 C.3         1 MOL       0.1504
      5 OA2         2.6531   14.2721   42.4610 O.3         1 MOL      -0.3713
      6 CA3         4.9447   14.1314   41.6962 C.3         1 MOL       0.1237
      7 OA3         5.5399   14.1398   42.9931 O.3         1 MOL      -0.3840
      8 CA4         5.9193   13.5235   40.6386 C.3         1 MOL       0.1169
      9 OA4         7.0479   14.3610   40.2847 O.3         1 MOL      -0.3402
     10 CA5         5.1581   13.2900   39.2867 C.3         1 MOL       0.0902
     11 NA5         3.7848   12.8887   39.3994 N.pl3       1 MOL      -0.2990
     12 CA6         5.9368   12.3598   38.2963 C.3         1 MOL       0.0694
     13 OA6         5.1127   11.3735   37.6649 O.3         1 MOL      -0.3927
     14 CB1         7.7384   15.1675   41.2502 C.3         1 MOL       0.1884
     15 CB2         8.4728   16.3354   40.5456 C.3         1 MOL       0.1341
     16 CB3         9.0602   17.2749   41.6336 C.3         1 MOL       0.1144
     17 CB4         9.9438   16.4954   42.6497 C.3         1 MOL       0.1184
     18 CB5         9.3492   15.1084   43.1002 C.3         1 MOL       0.1134
     19 CB6         8.4290   15.1550   44.3511 C.3         1 MOL       0.0730
     20 OB2         9.4879   15.8627   39.6525 O.3         1 MOL      -0.3841
     21 OB3         7.9956   17.9375   42.3175 O.3         1 MOL      -0.3864
     22 OB4        11.2167   16.2963   42.0007 O.3         1 MOL      -0.3401
     23 OB5         8.6927   14.4009   42.0130 O.3         1 MOL      -0.3405
     24 OB6         9.0556   15.8338   45.4355 O.3         1 MOL      -0.3924
     25 CD1        12.4384   16.4255   42.7615 C.3         1 MOL       0.1884
     26 CD2        12.8222   17.8851   43.1268 C.3         1 MOL       0.1341
     27 CD3        12.9532   18.7170   41.8244 C.3         1 MOL       0.1143
     28 CD4        13.9955   18.0699   40.8628 C.3         1 MOL       0.1150
     29 CD5        13.8082   16.5161   40.7156 C.3         1 MOL       0.1133
     30 CD6        15.0626   15.7950   40.1426 C.3         1 MOL       0.0730
     31 OD2        11.9329   18.4975   44.0546 O.3         1 MOL      -0.3841
     32 OD3        13.3502   20.0537   42.1398 O.3         1 MOL      -0.3864
     33 OD4        14.0770   18.8147   39.6203 O.3         1 MOL      -0.3745
     34 OD5        13.5084   15.8648   41.9744 O.3         1 MOL      -0.3405
     35 OD6        15.8717   16.6169   39.2996 O.3         1 MOL      -0.3924
     36 CD7        13.2384   18.4792   38.4979 C.3         1 MOL       0.0370
     37 H1          0.2302   11.8827   39.7509 H           1 MOL       0.2523
     38 H2          3.7009   12.5042   42.4426 H           1 MOL       0.0843
     39 H3          3.0758   14.5459   43.3020 H           1 MOL       0.2137
     40 H4          4.7435   15.1664   41.4136 H           1 MOL       0.0674
     41 H5          5.7904   13.2060   43.1732 H           1 MOL       0.2103
     42 H6          6.2843   12.5691   41.0229 H           1 MOL       0.0650
     43 H7          5.0868   14.2716   38.8020 H           1 MOL       0.0603
     44 H8          3.3339   12.6224   38.5769 H           1 MOL       0.1812
     45 H9          6.7531   11.8269   38.7984 H           1 MOL       0.0581
     46 H10         6.3880   12.9661   37.5011 H           1 MOL       0.0581
     47 H11         5.7096   10.9186   37.0302 H           1 MOL       0.2095
     48 H12         6.9990   15.6172   41.9044 H           1 MOL       0.0938
     49 H13         7.7566   16.9012   39.9477 H           1 MOL       0.0671
     50 H14         9.6506   18.0580   41.1460 H           1 MOL       0.0648
     51 H15        10.0513   17.1308   43.5289 H           1 MOL       0.0651
     52 H16        10.1897   14.4712   43.3871 H           1 MOL       0.0647
     53 H17         8.2347   14.1313   44.6850 H           1 MOL       0.0584
     54 H18         7.4699   15.6332   44.1334 H           1 MOL       0.0584
     55 H19        10.0918   15.3171   40.1968 H           1 MOL       0.2101
     56 H20         8.4015   18.7054   42.7702 H           1 MOL       0.2100
     57 H21         8.8350   16.7788   45.3077 H           1 MOL       0.2095
     58 H22        12.3737   15.8295   43.6769 H           1 MOL       0.0938
     59 H23        13.7876   17.8592   43.6221 H           1 MOL       0.0671
     60 H24        11.9798   18.7739   41.3310 H           1 MOL       0.0648
     61 H25        14.9683   18.2244   41.3336 H           1 MOL       0.0649
     62 H26        12.9740   16.3186   40.0423 H           1 MOL       0.0647
     63 H27        14.7454   14.9276   39.5536 H           1 MOL       0.0584
     64 H28        15.7047   15.4310   40.9556 H           1 MOL       0.0584
     65 H29        11.9624   17.9253   44.8503 H           1 MOL       0.2101
     66 H30        12.6929   20.3907   42.7902 H           1 MOL       0.2100
     67 H31        16.5814   16.9601   39.8889 H           1 MOL       0.2095
     68 H32        13.2941   19.2873   37.7721 H           1 MOL       0.0524
     69 H33        12.1962   18.3465   38.7904 H           1 MOL       0.0524
     70 H34        13.6001   17.5721   38.0104 H           1 MOL       0.0524
@<TRIPOS>BOND
     1     1     2   2
     2     1     4   1
     3     1    11   1
     4     2     3   1
     5     4     5   1
     6     4     6   1
     7     6     7   1
     8     6     8   1
     9     8     9   1
    10     8    10   1
    11     9    14   1
    12    10    11   1
    13    10    12   1
    14    12    13   1
    15    14    15   1
    16    14    23   1
    17    15    16   1
    18    15    20   1
    19    16    17   1
    20    16    21   1
    21    17    18   1
    22    17    22   1
    23    18    19   1
    24    18    23   1
    25    19    24   1
    26    22    25   1
    27    25    26   1
    28    25    34   1
    29    26    27   1
    30    26    31   1
    31    27    28   1
    32    27    32   1
    33    28    29   1
    34    28    33   1
    35    29    30   1
    36    29    34   1
    37    30    35   1
    38    33    36   1
    39     3    37   1
    40     4    38   1
    41     5    39   1
    42     6    40   1
    43     7    41   1
    44     8    42   1
    45    10    43   1
    46    11    44   1
    47    12    45   1
    48    12    46   1
    49    13    47   1
    50    14    48   1
    51    15    49   1
    52    16    50   1
    53    17    51   1
    54    18    52   1
    55    19    53   1
    56    19    54   1
    57    20    55   1
    58    21    56   1
    59    24    57   1
    60    25    58   1
    61    26    59   1
    62    27    60   1
    63    28    61   1
    64    29    62   1
    65    30    63   1
    66    30    64   1
    67    31    65   1
    68    32    66   1
    69    35    67   1
    70    36    68   1
    71    36    69   1
    72    36    70   1
@<TRIPOS>SUBSTRUCTURE
     1  MOL      1

