@<TRIPOS>MOLECULE
1u33_ligand_044
    70    72
SMALL
GAST_HUCK
****
This file was generated by PARSER (from files_GN.cpp)

@<TRIPOS>ATOM
      1 CA1         8.5982   15.0046   43.5844 C.2         1 MOL       0.1322
      2 NA1         7.4966   14.5434   44.2114 N.2         1 MOL      -0.2068
      3 OA7         6.3243   14.4434   43.6599 O.3         1 MOL      -0.3046
      4 CA2         9.8731   15.0754   44.3323 C.3         1 MOL       0.1504
      5 OA2         9.6959   15.8465   45.5266 O.3         1 MOL      -0.3713
      6 CA3        11.0392   15.7279   43.5219 C.3         1 MOL       0.1237
      7 OA3        12.2928   15.3468   44.1074 O.3         1 MOL      -0.3840
      8 CA4        11.0129   15.3226   42.0155 C.3         1 MOL       0.1169
      9 OA4        11.9701   15.9379   41.1262 O.3         1 MOL      -0.3402
     10 CA5         9.6104   15.6010   41.3942 C.3         1 MOL       0.0902
     11 NA5         8.5136   15.3135   42.2701 N.pl3       1 MOL      -0.2990
     12 CA6         9.3680   14.8030   40.0783 C.3         1 MOL       0.0694
     13 OA6        10.3337   15.0585   39.0598 O.3         1 MOL      -0.3927
     14 CB1        13.0311   16.8565   41.4632 C.3         1 MOL       0.1884
     15 CB2        13.0001   18.0429   40.4653 C.3         1 MOL       0.1341
     16 CB3        13.3887   17.5857   39.0275 C.3         1 MOL       0.1144
     17 CB4        14.7194   16.7723   39.0437 C.3         1 MOL       0.1184
     18 CB5        14.6750   15.6308   40.1160 C.3         1 MOL       0.1134
     19 CB6        16.0258   14.8856   40.2855 C.3         1 MOL       0.0730
     20 OB2        11.6789   18.5964   40.4602 O.3         1 MOL      -0.3841
     21 OB3        13.5417   18.7374   38.1770 O.3         1 MOL      -0.3864
     22 OB4        15.1349   16.3415   37.7230 O.3         1 MOL      -0.3401
     23 OB5        14.3021   16.1638   41.4166 O.3         1 MOL      -0.3405
     24 OB6        16.8964   15.5057   41.2395 O.3         1 MOL      -0.3924
     25 CD1        14.4437   15.2953   36.9890 C.3         1 MOL       0.1884
     26 CD2        15.4505   14.5462   36.0768 C.3         1 MOL       0.1341
     27 CD3        15.9062   15.4473   34.9008 C.3         1 MOL       0.1143
     28 CD4        14.6858   15.9816   34.1028 C.3         1 MOL       0.1150
     29 CD5        13.6611   16.6378   35.0792 C.3         1 MOL       0.1133
     30 CD6        12.3258   16.9813   34.3666 C.3         1 MOL       0.0730
     31 OD2        16.5742   14.0960   36.8331 O.3         1 MOL      -0.3841
     32 OD3        16.7761   14.6932   34.0562 O.3         1 MOL      -0.3864
     33 OD4        15.1239   16.9865   33.1623 O.3         1 MOL      -0.3745
     34 OD5        13.3342   15.7856   36.2002 O.3         1 MOL      -0.3405
     35 OD6        11.7356   15.8426   33.7373 O.3         1 MOL      -0.3924
     36 CD7        15.1443   16.6145   31.7723 C.3         1 MOL       0.0370
     37 H1          6.1922   13.4719   43.5536 H           1 MOL       0.2523
     38 H2         10.1498   14.0555   44.6204 H           1 MOL       0.0843
     39 H3          8.7362   15.9839   45.6519 H           1 MOL       0.2137
     40 H4         10.9405   16.8161   43.5993 H           1 MOL       0.0674
     41 H5         12.2888   15.6846   45.0350 H           1 MOL       0.2103
     42 H6         11.2096   14.2489   41.9859 H           1 MOL       0.0650
     43 H7          9.5466   16.6687   41.1554 H           1 MOL       0.0603
     44 H8          7.6335   15.2970   41.8597 H           1 MOL       0.1812
     45 H9          8.3926   15.0802   39.6645 H           1 MOL       0.0581
     46 H10         9.3563   13.7313   40.2877 H           1 MOL       0.0581
     47 H11        11.1670   14.6637   39.3823 H           1 MOL       0.2095
     48 H12        12.9284   17.2752   42.4601 H           1 MOL       0.0938
     49 H13        13.7192   18.8004   40.7937 H           1 MOL       0.0671
     50 H14        12.5878   16.9554   38.6242 H           1 MOL       0.0648
     51 H15        15.5049   17.4658   39.3664 H           1 MOL       0.0651
     52 H16        13.9267   14.8929   39.8185 H           1 MOL       0.0647
     53 H17        16.5441   14.8080   39.3254 H           1 MOL       0.0584
     54 H18        15.8232   13.8696   40.6510 H           1 MOL       0.0584
     55 H19        11.7558   19.4980   40.8639 H           1 MOL       0.2101
     56 H20        12.6821   18.8459   37.6950 H           1 MOL       0.2100
     57 H21        17.2175   16.3389   40.8172 H           1 MOL       0.2095
     58 H22        14.0393   14.5612   37.6892 H           1 MOL       0.0938
     59 H23        14.9557   13.6592   35.6744 H           1 MOL       0.0671
     60 H24        16.4765   16.2929   35.3035 H           1 MOL       0.0648
     61 H25        14.1998   15.1310   33.6146 H           1 MOL       0.0649
     62 H26        14.0812   17.5770   35.4667 H           1 MOL       0.0647
     63 H27        12.4943   17.7433   33.5979 H           1 MOL       0.0584
     64 H28        11.6068   17.3789   35.0917 H           1 MOL       0.0584
     65 H29        17.0882   14.9051   37.0449 H           1 MOL       0.2101
     66 H30        17.1574   15.3480   33.4290 H           1 MOL       0.2100
     67 H31        11.5107   15.2307   34.4714 H           1 MOL       0.2095
     68 H32        15.5457   17.4509   31.1976 H           1 MOL       0.0524
     69 H33        14.1301   16.4040   31.4200 H           1 MOL       0.0524
     70 H34        15.7773   15.7391   31.5998 H           1 MOL       0.0524
@<TRIPOS>BOND
     1     1     2   2
     2     1     4   1
     3     1    11   1
     4     2     3   1
     5     4     5   1
     6     4     6   1
     7     6     7   1
     8     6     8   1
     9     8     9   1
    10     8    10   1
    11     9    14   1
    12    10    11   1
    13    10    12   1
    14    12    13   1
    15    14    15   1
    16    14    23   1
    17    15    16   1
    18    15    20   1
    19    16    17   1
    20    16    21   1
    21    17    18   1
    22    17    22   1
    23    18    19   1
    24    18    23   1
    25    19    24   1
    26    22    25   1
    27    25    26   1
    28    25    34   1
    29    26    27   1
    30    26    31   1
    31    27    28   1
    32    27    32   1
    33    28    29   1
    34    28    33   1
    35    29    30   1
    36    29    34   1
    37    30    35   1
    38    33    36   1
    39     3    37   1
    40     4    38   1
    41     5    39   1
    42     6    40   1
    43     7    41   1
    44     8    42   1
    45    10    43   1
    46    11    44   1
    47    12    45   1
    48    12    46   1
    49    13    47   1
    50    14    48   1
    51    15    49   1
    52    16    50   1
    53    17    51   1
    54    18    52   1
    55    19    53   1
    56    19    54   1
    57    20    55   1
    58    21    56   1
    59    24    57   1
    60    25    58   1
    61    26    59   1
    62    27    60   1
    63    28    61   1
    64    29    62   1
    65    30    63   1
    66    30    64   1
    67    31    65   1
    68    32    66   1
    69    35    67   1
    70    36    68   1
    71    36    69   1
    72    36    70   1
@<TRIPOS>SUBSTRUCTURE
     1  MOL      1

