@<TRIPOS>MOLECULE
1u33_ligand_034
    70    72
SMALL
GAST_HUCK
****
This file was generated by PARSER (from files_GN.cpp)

@<TRIPOS>ATOM
      1 CA1        10.3780   16.9422   43.3081 C.2         1 MOL       0.1322
      2 NA1         9.0712   17.2247   43.4625 N.2         1 MOL      -0.2068
      3 OA7         8.1684   16.4087   43.9236 O.3         1 MOL      -0.3046
      4 CA2        10.9252   15.5774   43.5680 C.3         1 MOL       0.1504
      5 OA2        10.5928   15.1685   44.8903 O.3         1 MOL      -0.3713
      6 CA3        12.4687   15.4576   43.3529 C.3         1 MOL       0.1237
      7 OA3        12.8071   14.0961   43.0810 O.3         1 MOL      -0.3840
      8 CA4        12.9827   16.3979   42.2229 C.3         1 MOL       0.1169
      9 OA4        14.4201   16.2945   42.1371 O.3         1 MOL      -0.3402
     10 CA5        12.5604   17.8562   42.6195 C.3         1 MOL       0.0902
     11 NA5        11.1447   17.9547   42.8382 N.pl3       1 MOL      -0.2990
     12 CA6        12.9957   18.9616   41.6180 C.3         1 MOL       0.0694
     13 OA6        12.2401   18.9141   40.4130 O.3         1 MOL      -0.3927
     14 CB1        15.0977   15.7896   40.9656 C.3         1 MOL       0.1884
     15 CB2        15.1261   16.8567   39.8371 C.3         1 MOL       0.1341
     16 CB3        15.8354   16.3342   38.5450 C.3         1 MOL       0.1144
     17 CB4        15.2713   14.9427   38.1102 C.3         1 MOL       0.1184
     18 CB5        15.2202   13.9567   39.3240 C.3         1 MOL       0.1134
     19 CB6        16.5963   13.3373   39.6963 C.3         1 MOL       0.0730
     20 OB2        13.7934   17.2596   39.4874 O.3         1 MOL      -0.3841
     21 OB3        17.2561   16.2741   38.7337 O.3         1 MOL      -0.3864
     22 OB4        13.9342   15.1051   37.5962 O.3         1 MOL      -0.3401
     23 OB5        14.5632   14.5431   40.4710 O.3         1 MOL      -0.3405
     24 OB6        17.0754   12.4797   38.6588 O.3         1 MOL      -0.3924
     25 CD1        13.7313   15.6501   36.2730 C.3         1 MOL       0.1884
     26 CD2        12.6814   16.7958   36.2952 C.3         1 MOL       0.1341
     27 CD3        11.3214   16.2545   36.8191 C.3         1 MOL       0.1143
     28 CD4        10.8362   15.0410   35.9676 C.3         1 MOL       0.1150
     29 CD5        11.9989   14.0172   35.7121 C.3         1 MOL       0.1133
     30 CD6        11.6640   13.0481   34.5491 C.3         1 MOL       0.0730
     31 OD2        13.1412   17.8791   37.1083 O.3         1 MOL      -0.3841
     32 OD3        10.3571   17.3074   36.7659 O.3         1 MOL      -0.3864
     33 OD4         9.7707   14.3023   36.5988 O.3         1 MOL      -0.3745
     34 OD5        13.2625   14.6347   35.3735 O.3         1 MOL      -0.3405
     35 OD6        12.0619   13.5977   33.2897 O.3         1 MOL      -0.3924
     36 CD7         8.4822   14.9186   36.7309 C.3         1 MOL       0.0370
     37 H1          7.9015   16.8221   44.7706 H           1 MOL       0.2523
     38 H2         10.4257   14.8939   42.8737 H           1 MOL       0.0843
     39 H3         11.0649   15.7954   45.4848 H           1 MOL       0.2137
     40 H4         12.9792   15.7305   44.2851 H           1 MOL       0.0674
     41 H5         13.7565   14.0194   43.3169 H           1 MOL       0.2103
     42 H6         12.4935   16.1160   41.2852 H           1 MOL       0.0650
     43 H7         13.0430   18.1015   43.5705 H           1 MOL       0.0603
     44 H8         10.7083   18.8017   42.6567 H           1 MOL       0.1812
     45 H9         14.0554   18.8389   41.3661 H           1 MOL       0.0581
     46 H10        12.8825   19.9568   42.0745 H           1 MOL       0.0581
     47 H11        11.5367   19.5941   40.5423 H           1 MOL       0.2095
     48 H12        16.1210   15.6306   41.2913 H           1 MOL       0.0938
     49 H13        15.6519   17.7478   40.1929 H           1 MOL       0.0671
     50 H14        15.6683   17.0719   37.7440 H           1 MOL       0.0648
     51 H15        15.9072   14.5204   37.3259 H           1 MOL       0.0651
     52 H16        14.5881   13.1202   39.0246 H           1 MOL       0.0647
     53 H17        16.4976   12.7547   40.6172 H           1 MOL       0.0584
     54 H18        17.3476   14.1042   39.8834 H           1 MOL       0.0584
     55 H19        13.3657   16.4353   39.1662 H           1 MOL       0.2101
     56 H20        17.4442   16.9432   39.4263 H           1 MOL       0.2100
     57 H21        17.6057   11.7924   39.1191 H           1 MOL       0.2095
     58 H22        14.6578   16.0530   35.8500 H           1 MOL       0.0938
     59 H23        12.5424   17.1800   35.2736 H           1 MOL       0.0671
     60 H24        11.4329   15.9511   37.8654 H           1 MOL       0.0648
     61 H25        10.5065   15.4286   34.9992 H           1 MOL       0.0649
     62 H26        12.1440   13.4210   36.6154 H           1 MOL       0.0647
     63 H27        10.5822   12.8503   34.5118 H           1 MOL       0.0584
     64 H28        12.1863   12.0942   34.6894 H           1 MOL       0.0584
     65 H29        13.8502   18.3033   36.5719 H           1 MOL       0.2101
     66 H30        10.8634   18.1533   36.8180 H           1 MOL       0.2100
     67 H31        11.8049   12.9197   32.6250 H           1 MOL       0.2095
     68 H32         7.7590   14.1500   37.0308 H           1 MOL       0.0524
     69 H33         8.1443   15.3386   35.7791 H           1 MOL       0.0524
     70 H34         8.4928   15.6927   37.4986 H           1 MOL       0.0524
@<TRIPOS>BOND
     1     1     2   2
     2     1     4   1
     3     1    11   1
     4     2     3   1
     5     4     5   1
     6     4     6   1
     7     6     7   1
     8     6     8   1
     9     8     9   1
    10     8    10   1
    11     9    14   1
    12    10    11   1
    13    10    12   1
    14    12    13   1
    15    14    15   1
    16    14    23   1
    17    15    16   1
    18    15    20   1
    19    16    17   1
    20    16    21   1
    21    17    18   1
    22    17    22   1
    23    18    19   1
    24    18    23   1
    25    19    24   1
    26    22    25   1
    27    25    26   1
    28    25    34   1
    29    26    27   1
    30    26    31   1
    31    27    28   1
    32    27    32   1
    33    28    29   1
    34    28    33   1
    35    29    30   1
    36    29    34   1
    37    30    35   1
    38    33    36   1
    39     3    37   1
    40     4    38   1
    41     5    39   1
    42     6    40   1
    43     7    41   1
    44     8    42   1
    45    10    43   1
    46    11    44   1
    47    12    45   1
    48    12    46   1
    49    13    47   1
    50    14    48   1
    51    15    49   1
    52    16    50   1
    53    17    51   1
    54    18    52   1
    55    19    53   1
    56    19    54   1
    57    20    55   1
    58    21    56   1
    59    24    57   1
    60    25    58   1
    61    26    59   1
    62    27    60   1
    63    28    61   1
    64    29    62   1
    65    30    63   1
    66    30    64   1
    67    31    65   1
    68    32    66   1
    69    35    67   1
    70    36    68   1
    71    36    69   1
    72    36    70   1
@<TRIPOS>SUBSTRUCTURE
     1  MOL      1

