@<TRIPOS>MOLECULE
1u33_ligand_058
    70    72
SMALL
GAST_HUCK
****
This file was generated by PARSER (from files_GN.cpp)

@<TRIPOS>ATOM
      1 CA1        16.2623   12.6712   37.7619 C.2         1 MOL       0.1322
      2 NA1        17.0641   11.6002   37.5765 N.2         1 MOL      -0.2068
      3 OA7        18.1501   11.3621   38.2617 O.3         1 MOL      -0.3046
      4 CA2        15.0325   12.7558   36.9449 C.3         1 MOL       0.1504
      5 OA2        15.3242   12.5212   35.5680 O.3         1 MOL      -0.3713
      6 CA3        14.2716   14.1070   37.0798 C.3         1 MOL       0.1237
      7 OA3        12.9224   13.8919   36.6545 O.3         1 MOL      -0.3840
      8 CA4        14.3351   14.6750   38.5370 C.3         1 MOL       0.1169
      9 OA4        13.7114   15.9889   38.6926 O.3         1 MOL      -0.3402
     10 CA5        15.8339   14.7868   38.9724 C.3         1 MOL       0.0902
     11 NA5        16.5538   13.5783   38.7230 N.pl3       1 MOL      -0.2990
     12 CA6        16.0104   15.1620   40.4712 C.3         1 MOL       0.0694
     13 OA6        15.6756   16.5255   40.7361 O.3         1 MOL      -0.3927
     14 CB1        12.2832   16.1158   38.4842 C.3         1 MOL       0.1884
     15 CB2        11.7934   17.5422   38.8814 C.3         1 MOL       0.1341
     16 CB3        10.2338   17.6348   38.8189 C.3         1 MOL       0.1144
     17 CB4         9.5228   16.4536   39.5583 C.3         1 MOL       0.1184
     18 CB5        10.1605   15.0775   39.1483 C.3         1 MOL       0.1134
     19 CB6         9.6960   14.4990   37.7706 C.3         1 MOL       0.0730
     20 OB2        12.2598   17.8809   40.2002 O.3         1 MOL      -0.3841
     21 OB3         9.8216   17.7187   37.4517 O.3         1 MOL      -0.3864
     22 OB4         9.5774   16.7612   40.9753 O.3         1 MOL      -0.3401
     23 OB5        11.5945   15.1309   39.2778 O.3         1 MOL      -0.3405
     24 OB6         8.6526   13.5244   37.9259 O.3         1 MOL      -0.3924
     25 CD1         9.3745   15.7341   41.9779 C.3         1 MOL       0.1884
     26 CD2         8.9067   16.3332   43.3322 C.3         1 MOL       0.1341
     27 CD3         9.9932   17.2892   43.8969 C.3         1 MOL       0.1143
     28 CD4        11.4192   16.6357   43.9331 C.3         1 MOL       0.1150
     29 CD5        11.7349   15.8026   42.6387 C.3         1 MOL       0.1133
     30 CD6        12.9224   14.8196   42.8451 C.3         1 MOL       0.0730
     31 OD2         7.6797   17.0339   43.1669 O.3         1 MOL      -0.3841
     32 OD3         9.6663   17.7319   45.2186 O.3         1 MOL      -0.3864
     33 OD4        12.5334   17.5426   44.2028 O.3         1 MOL      -0.3745
     34 OD5        10.5968   15.0000   42.2137 O.3         1 MOL      -0.3405
     35 OD6        13.9716   15.3905   43.6377 O.3         1 MOL      -0.3924
     36 CD7        12.3534   18.9666   44.0104 C.3         1 MOL       0.0370
     37 H1         18.8765   11.4610   37.6017 H           1 MOL       0.2523
     38 H2         14.3776   11.9502   37.2790 H           1 MOL       0.0843
     39 H3         15.9552   13.2275   35.3022 H           1 MOL       0.2137
     40 H4         14.7200   14.8552   36.4128 H           1 MOL       0.0674
     41 H5         12.9996   13.5956   35.7151 H           1 MOL       0.2103
     42 H6         13.8461   13.9534   39.2084 H           1 MOL       0.0650
     43 H7         16.3052   15.5735   38.3781 H           1 MOL       0.0603
     44 H8         17.3387   13.4154   39.2544 H           1 MOL       0.1812
     45 H9         17.0531   15.0155   40.7784 H           1 MOL       0.0581
     46 H10        15.3827   14.5182   41.0933 H           1 MOL       0.0581
     47 H11        16.5039   17.0278   40.5595 H           1 MOL       0.2095
     48 H12        12.0776   15.9802   37.4224 H           1 MOL       0.0938
     49 H13        12.2329   18.2744   38.1732 H           1 MOL       0.0671
     50 H14         9.9319   18.5811   39.2789 H           1 MOL       0.0648
     51 H15         8.4653   16.4533   39.2779 H           1 MOL       0.0651
     52 H16         9.8562   14.3255   39.8768 H           1 MOL       0.0647
     53 H17        10.5461   14.0035   37.2819 H           1 MOL       0.0584
     54 H18         9.3308   15.2867   37.0977 H           1 MOL       0.0584
     55 H19        13.1877   18.1856   40.0417 H           1 MOL       0.2101
     56 H20        10.3679   18.4279   37.0559 H           1 MOL       0.2100
     57 H21         7.8935   14.0358   38.2733 H           1 MOL       0.2095
     58 H22         8.6075   15.0231   41.6568 H           1 MOL       0.0938
     59 H23         8.7391   15.5133   44.0396 H           1 MOL       0.0671
     60 H24        10.0119   18.1692   43.2500 H           1 MOL       0.0648
     61 H25        11.4081   15.9275   44.7689 H           1 MOL       0.0649
     62 H26        12.0093   16.5031   41.8331 H           1 MOL       0.0647
     63 H27        13.3366   14.5638   41.8602 H           1 MOL       0.0584
     64 H28        12.5666   13.8997   43.3280 H           1 MOL       0.0584
     65 H29         7.5367   17.4891   44.0301 H           1 MOL       0.2101
     66 H30         9.0390   17.0539   45.5583 H           1 MOL       0.2100
     67 H31        14.4935   14.6118   43.9564 H           1 MOL       0.2095
     68 H32        13.3298   19.4442   44.0521 H           1 MOL       0.0524
     69 H33        11.7356   19.3842   44.8144 H           1 MOL       0.0524
     70 H34        11.9112   19.1943   43.0348 H           1 MOL       0.0524
@<TRIPOS>BOND
     1     1     2   2
     2     1     4   1
     3     1    11   1
     4     2     3   1
     5     4     5   1
     6     4     6   1
     7     6     7   1
     8     6     8   1
     9     8     9   1
    10     8    10   1
    11     9    14   1
    12    10    11   1
    13    10    12   1
    14    12    13   1
    15    14    15   1
    16    14    23   1
    17    15    16   1
    18    15    20   1
    19    16    17   1
    20    16    21   1
    21    17    18   1
    22    17    22   1
    23    18    19   1
    24    18    23   1
    25    19    24   1
    26    22    25   1
    27    25    26   1
    28    25    34   1
    29    26    27   1
    30    26    31   1
    31    27    28   1
    32    27    32   1
    33    28    29   1
    34    28    33   1
    35    29    30   1
    36    29    34   1
    37    30    35   1
    38    33    36   1
    39     3    37   1
    40     4    38   1
    41     5    39   1
    42     6    40   1
    43     7    41   1
    44     8    42   1
    45    10    43   1
    46    11    44   1
    47    12    45   1
    48    12    46   1
    49    13    47   1
    50    14    48   1
    51    15    49   1
    52    16    50   1
    53    17    51   1
    54    18    52   1
    55    19    53   1
    56    19    54   1
    57    20    55   1
    58    21    56   1
    59    24    57   1
    60    25    58   1
    61    26    59   1
    62    27    60   1
    63    28    61   1
    64    29    62   1
    65    30    63   1
    66    30    64   1
    67    31    65   1
    68    32    66   1
    69    35    67   1
    70    36    68   1
    71    36    69   1
    72    36    70   1
@<TRIPOS>SUBSTRUCTURE
     1  MOL      1

