@<TRIPOS>MOLECULE
1u33_ligand_081
    70    72
SMALL
GAST_HUCK
****
This file was generated by PARSER (from files_GN.cpp)

@<TRIPOS>ATOM
      1 CA1         5.5777   14.6420   41.8531 C.2         1 MOL       0.1322
      2 NA1         4.3569   14.0645   41.8388 N.2         1 MOL      -0.2068
      3 OA7         3.9265   13.0561   42.5511 O.3         1 MOL      -0.3046
      4 CA2         5.7775   15.8255   40.9808 C.3         1 MOL       0.1504
      5 OA2         5.4162   15.5124   39.6311 O.3         1 MOL      -0.3713
      6 CA3         7.2224   16.4118   41.0079 C.3         1 MOL       0.1237
      7 OA3         7.1752   17.8059   40.6762 O.3         1 MOL      -0.3840
      8 CA4         7.9015   16.2489   42.3980 C.3         1 MOL       0.1169
      9 OA4         9.2237   16.8321   42.4478 O.3         1 MOL      -0.3402
     10 CA5         7.8319   14.7739   42.9091 C.3         1 MOL       0.0902
     11 NA5         6.5499   14.1702   42.6731 N.pl3       1 MOL      -0.2990
     12 CA6         8.1593   14.6127   44.4279 C.3         1 MOL       0.0694
     13 OA6         9.0442   15.6045   44.9447 O.3         1 MOL      -0.3927
     14 CB1        10.3948   16.3596   41.7365 C.3         1 MOL       0.1884
     15 CB2        11.0314   17.5939   41.0265 C.3         1 MOL       0.1341
     16 CB3        12.2439   17.1943   40.1387 C.3         1 MOL       0.1144
     17 CB4        11.9328   15.9697   39.2187 C.3         1 MOL       0.1184
     18 CB5        11.3026   14.8034   40.0423 C.3         1 MOL       0.1134
     19 CB6        12.3134   13.9605   40.8728 C.3         1 MOL       0.0730
     20 OB2        10.0557   18.2782   40.2388 O.3         1 MOL      -0.3841
     21 OB3        13.3754   16.9237   40.9703 O.3         1 MOL      -0.3864
     22 OB4        10.9798   16.2369   38.1569 O.3         1 MOL      -0.3401
     23 OB5        10.1691   15.2649   40.8160 O.3         1 MOL      -0.3405
     24 OB6        13.4942   13.6767   40.1163 O.3         1 MOL      -0.3924
     25 CD1        11.1177   17.3787   37.2780 C.3         1 MOL       0.1884
     26 CD2        10.0945   17.2467   36.1102 C.3         1 MOL       0.1341
     27 CD3        10.5820   16.2138   35.0563 C.3         1 MOL       0.1143
     28 CD4        12.0313   16.5395   34.5907 C.3         1 MOL       0.1150
     29 CD5        12.9647   16.6321   35.8375 C.3         1 MOL       0.1133
     30 CD6        14.4232   17.0305   35.4864 C.3         1 MOL       0.0730
     31 OD2         8.8081   16.8737   36.6112 O.3         1 MOL      -0.3841
     32 OD3         9.6891   16.2194   33.9418 O.3         1 MOL      -0.3864
     33 OD4        12.5429   15.4994   33.7254 O.3         1 MOL      -0.3745
     34 OD5        12.4659   17.5995   36.7903 O.3         1 MOL      -0.3405
     35 OD6        14.4886   18.0248   34.4634 O.3         1 MOL      -0.3924
     36 CD7        12.3303   15.6644   32.3141 C.3         1 MOL       0.0370
     37 H1          4.7145   12.5570   42.8524 H           1 MOL       0.2523
     38 H2          5.0761   16.5943   41.3218 H           1 MOL       0.0843
     39 H3          6.0193   14.7854   39.3637 H           1 MOL       0.2137
     40 H4          7.8265   15.9029   40.2557 H           1 MOL       0.0674
     41 H5          7.3562   17.8698   39.7134 H           1 MOL       0.2103
     42 H6          7.3096   16.8472   43.0995 H           1 MOL       0.0650
     43 H7          8.5554   14.1801   42.3490 H           1 MOL       0.0603
     44 H8          6.3490   13.3657   43.1741 H           1 MOL       0.1812
     45 H9          8.6388   13.6399   44.5847 H           1 MOL       0.0581
     46 H10         7.2401   14.6272   45.0340 H           1 MOL       0.0581
     47 H11         8.4500   16.2721   45.3550 H           1 MOL       0.2095
     48 H12        11.0790   16.0107   42.5145 H           1 MOL       0.0938
     49 H13        11.3693   18.3058   41.7910 H           1 MOL       0.0671
     50 H14        12.5281   18.0613   39.5301 H           1 MOL       0.0648
     51 H15        12.8719   15.6325   38.7617 H           1 MOL       0.0651
     52 H16        10.8919   14.0935   39.3212 H           1 MOL       0.0647
     53 H17        11.8487   13.0068   41.1565 H           1 MOL       0.0584
     54 H18        12.6106   14.4700   41.7928 H           1 MOL       0.0584
     55 H19         9.6542   17.5923   39.6696 H           1 MOL       0.2101
     56 H20        14.1477   16.9009   40.3572 H           1 MOL       0.2100
     57 H21        13.2239   12.9892   39.4736 H           1 MOL       0.2095
     58 H22        10.8452   18.2665   37.8555 H           1 MOL       0.0938
     59 H23         9.9912   18.2196   35.6274 H           1 MOL       0.0671
     60 H24        10.5568   15.2127   35.4986 H           1 MOL       0.0648
     61 H25        12.0190   17.5224   34.0985 H           1 MOL       0.0649
     62 H26        13.0070   15.6458   36.3109 H           1 MOL       0.0647
     63 H27        14.9891   16.1486   35.1678 H           1 MOL       0.0584
     64 H28        14.9070   17.4372   36.3802 H           1 MOL       0.0584
     65 H29         8.5106   17.6366   37.1502 H           1 MOL       0.2101
     66 H30         8.8552   15.8204   34.2700 H           1 MOL       0.2100
     67 H31        14.3507   17.5382   33.6215 H           1 MOL       0.2095
     68 H32        12.8321   14.8441   31.7974 H           1 MOL       0.0524
     69 H33        12.7603   16.6054   31.9586 H           1 MOL       0.0524
     70 H34        11.2668   15.6313   32.0709 H           1 MOL       0.0524
@<TRIPOS>BOND
     1     1     2   2
     2     1     4   1
     3     1    11   1
     4     2     3   1
     5     4     5   1
     6     4     6   1
     7     6     7   1
     8     6     8   1
     9     8     9   1
    10     8    10   1
    11     9    14   1
    12    10    11   1
    13    10    12   1
    14    12    13   1
    15    14    15   1
    16    14    23   1
    17    15    16   1
    18    15    20   1
    19    16    17   1
    20    16    21   1
    21    17    18   1
    22    17    22   1
    23    18    19   1
    24    18    23   1
    25    19    24   1
    26    22    25   1
    27    25    26   1
    28    25    34   1
    29    26    27   1
    30    26    31   1
    31    27    28   1
    32    27    32   1
    33    28    29   1
    34    28    33   1
    35    29    30   1
    36    29    34   1
    37    30    35   1
    38    33    36   1
    39     3    37   1
    40     4    38   1
    41     5    39   1
    42     6    40   1
    43     7    41   1
    44     8    42   1
    45    10    43   1
    46    11    44   1
    47    12    45   1
    48    12    46   1
    49    13    47   1
    50    14    48   1
    51    15    49   1
    52    16    50   1
    53    17    51   1
    54    18    52   1
    55    19    53   1
    56    19    54   1
    57    20    55   1
    58    21    56   1
    59    24    57   1
    60    25    58   1
    61    26    59   1
    62    27    60   1
    63    28    61   1
    64    29    62   1
    65    30    63   1
    66    30    64   1
    67    31    65   1
    68    32    66   1
    69    35    67   1
    70    36    68   1
    71    36    69   1
    72    36    70   1
@<TRIPOS>SUBSTRUCTURE
     1  MOL      1

