@<TRIPOS>MOLECULE
1u33_ligand_049
    70    72
SMALL
GAST_HUCK
****
This file was generated by PARSER (from files_GN.cpp)

@<TRIPOS>ATOM
      1 CA1        13.4810   16.2438   42.8259 C.2         1 MOL       0.1322
      2 NA1        13.9453   15.3050   43.6771 N.2         1 MOL      -0.2068
      3 OA7        14.6607   14.2881   43.2896 O.3         1 MOL      -0.3046
      4 CA2        12.5644   17.2861   43.3549 C.3         1 MOL       0.1504
      5 OA2        11.4902   16.6516   44.0460 O.3         1 MOL      -0.3713
      6 CA3        11.9973   18.2643   42.2769 C.3         1 MOL       0.1237
      7 OA3        12.7511   19.4814   42.3088 O.3         1 MOL      -0.3840
      8 CA4        12.0105   17.6981   40.8259 C.3         1 MOL       0.1169
      9 OA4        10.8407   16.8982   40.5251 O.3         1 MOL      -0.3402
     10 CA5        13.3749   17.0127   40.4745 C.3         1 MOL       0.0902
     11 NA5        13.8392   16.1637   41.5258 N.pl3       1 MOL      -0.2990
     12 CA6        14.5281   17.9700   40.0755 C.3         1 MOL       0.0694
     13 OA6        15.6491   17.2159   39.6032 O.3         1 MOL      -0.3927
     14 CB1        10.7263   15.4918   40.8502 C.3         1 MOL       0.1884
     15 CB2         9.8984   14.7806   39.7583 C.3         1 MOL       0.1341
     16 CB3         8.4063   15.1786   39.8646 C.3         1 MOL       0.1144
     17 CB4         7.8373   14.9794   41.3030 C.3         1 MOL       0.1184
     18 CB5         8.7766   15.6682   42.3495 C.3         1 MOL       0.1134
     19 CB6         8.4483   15.2961   43.8220 C.3         1 MOL       0.0730
     20 OB2        10.4017   15.0810   38.4525 O.3         1 MOL      -0.3841
     21 OB3         7.6763   14.4072   38.9127 O.3         1 MOL      -0.3864
     22 OB4         6.5038   15.5468   41.2848 O.3         1 MOL      -0.3401
     23 OB5        10.1427   15.2460   42.1429 O.3         1 MOL      -0.3405
     24 OB6         7.2576   15.9279   44.2762 O.3         1 MOL      -0.3924
     25 CD1         5.3399   14.8385   41.7737 C.3         1 MOL       0.1884
     26 CD2         5.0311   13.4560   41.1329 C.3         1 MOL       0.1341
     27 CD3         4.7683   13.6155   39.6110 C.3         1 MOL       0.1143
     28 CD4         3.6006   14.6113   39.3498 C.3         1 MOL       0.1150
     29 CD5         3.8282   15.9266   40.1691 C.3         1 MOL       0.1133
     30 CD6         2.5676   16.8239   40.1935 C.3         1 MOL       0.0730
     31 OD2         6.0717   12.5213   41.3937 O.3         1 MOL      -0.3841
     32 OD3         4.5035   12.3484   39.0112 O.3         1 MOL      -0.3864
     33 OD4         3.5786   14.9600   37.9420 O.3         1 MOL      -0.3745
     34 OD5         4.1815   15.6716   41.5530 O.3         1 MOL      -0.3405
     35 OD6         1.9819   16.9766   38.9037 O.3         1 MOL      -0.3924
     36 CD7         2.6264   14.2842   37.1046 C.3         1 MOL       0.0370
     37 H1         15.5183   14.3882   43.7467 H           1 MOL       0.2523
     38 H2         13.1034   17.8717   44.1042 H           1 MOL       0.0843
     39 H3         11.8033   16.5319   44.9683 H           1 MOL       0.2137
     40 H4         10.9686   18.5429   42.5354 H           1 MOL       0.0674
     41 H5         12.1723   20.1501   41.8819 H           1 MOL       0.2103
     42 H6         11.8896   18.5493   40.1497 H           1 MOL       0.0650
     43 H7         13.1952   16.3742   39.6056 H           1 MOL       0.0603
     44 H8         14.4569   15.4609   41.2727 H           1 MOL       0.1812
     45 H9         14.8386   18.5884   40.9234 H           1 MOL       0.0581
     46 H10        14.2033   18.6305   39.2654 H           1 MOL       0.0581
     47 H11        16.4018   17.4473   40.1899 H           1 MOL       0.2095
     48 H12        11.6900   14.9917   40.8452 H           1 MOL       0.0938
     49 H13         9.9888   13.6977   39.9050 H           1 MOL       0.0671
     50 H14         8.3050   16.2341   39.5921 H           1 MOL       0.0648
     51 H15         7.8276   13.9073   41.5180 H           1 MOL       0.0651
     52 H16         8.7217   16.7580   42.2423 H           1 MOL       0.0647
     53 H17         9.2581   15.6143   44.4825 H           1 MOL       0.0584
     54 H18         8.3420   14.2139   43.9259 H           1 MOL       0.0584
     55 H19        10.3231   16.0554   38.3581 H           1 MOL       0.2101
     56 H20         7.8356   13.4784   39.1783 H           1 MOL       0.2100
     57 H21         7.5384   16.8186   44.5779 H           1 MOL       0.2095
     58 H22         5.4286   14.7067   42.8520 H           1 MOL       0.0938
     59 H23         4.1254   13.0619   41.6075 H           1 MOL       0.0671
     60 H24         5.6691   14.0095   39.1356 H           1 MOL       0.0648
     61 H25         2.6539   14.1556   39.6810 H           1 MOL       0.0649
     62 H26         4.6349   16.5027   39.7015 H           1 MOL       0.0647
     63 H27         2.8413   17.8122   40.5672 H           1 MOL       0.0584
     64 H28         1.8191   16.3936   40.8626 H           1 MOL       0.0584
     65 H29         5.6565   11.6478   41.3042 H           1 MOL       0.2101
     66 H30         3.5352   12.2037   39.0947 H           1 MOL       0.2100
     67 H31         2.4922   17.6960   38.4782 H           1 MOL       0.2095
     68 H32         2.8093   14.5826   36.0723 H           1 MOL       0.0524
     69 H33         1.6107   14.5799   37.3750 H           1 MOL       0.0524
     70 H34         2.7227   13.1989   37.1706 H           1 MOL       0.0524
@<TRIPOS>BOND
     1     1     2   2
     2     1     4   1
     3     1    11   1
     4     2     3   1
     5     4     5   1
     6     4     6   1
     7     6     7   1
     8     6     8   1
     9     8     9   1
    10     8    10   1
    11     9    14   1
    12    10    11   1
    13    10    12   1
    14    12    13   1
    15    14    15   1
    16    14    23   1
    17    15    16   1
    18    15    20   1
    19    16    17   1
    20    16    21   1
    21    17    18   1
    22    17    22   1
    23    18    19   1
    24    18    23   1
    25    19    24   1
    26    22    25   1
    27    25    26   1
    28    25    34   1
    29    26    27   1
    30    26    31   1
    31    27    28   1
    32    27    32   1
    33    28    29   1
    34    28    33   1
    35    29    30   1
    36    29    34   1
    37    30    35   1
    38    33    36   1
    39     3    37   1
    40     4    38   1
    41     5    39   1
    42     6    40   1
    43     7    41   1
    44     8    42   1
    45    10    43   1
    46    11    44   1
    47    12    45   1
    48    12    46   1
    49    13    47   1
    50    14    48   1
    51    15    49   1
    52    16    50   1
    53    17    51   1
    54    18    52   1
    55    19    53   1
    56    19    54   1
    57    20    55   1
    58    21    56   1
    59    24    57   1
    60    25    58   1
    61    26    59   1
    62    27    60   1
    63    28    61   1
    64    29    62   1
    65    30    63   1
    66    30    64   1
    67    31    65   1
    68    32    66   1
    69    35    67   1
    70    36    68   1
    71    36    69   1
    72    36    70   1
@<TRIPOS>SUBSTRUCTURE
     1  MOL      1

