@<TRIPOS>MOLECULE
1u33_ligand_070
    70    72
SMALL
GAST_HUCK
****
This file was generated by PARSER (from files_GN.cpp)

@<TRIPOS>ATOM
      1 CA1        12.9038   14.6406   38.7151 C.2         1 MOL       0.1322
      2 NA1        11.8086   14.1744   38.0777 N.2         1 MOL      -0.2068
      3 OA7        11.2932   14.7392   37.0192 O.3         1 MOL      -0.3046
      4 CA2        13.3429   13.9752   39.9703 C.3         1 MOL       0.1504
      5 OA2        12.2668   14.0582   40.9057 O.3         1 MOL      -0.3713
      6 CA3        14.6364   14.5822   40.6058 C.3         1 MOL       0.1237
      7 OA3        15.7938   13.9209   40.1015 O.3         1 MOL      -0.3840
      8 CA4        14.6951   16.1265   40.3988 C.3         1 MOL       0.1169
      9 OA4        13.6236   16.6398   41.2187 O.3         1 MOL      -0.3402
     10 CA5        14.5784   16.4632   38.8748 C.3         1 MOL       0.0902
     11 NA5        13.5013   15.7613   38.2424 N.pl3       1 MOL      -0.2990
     12 CA6        15.8772   16.2090   38.0496 C.3         1 MOL       0.0694
     13 OA6        15.6523   16.6032   36.6993 O.3         1 MOL      -0.3927
     14 CB1        13.1972   18.0178   41.1560 C.3         1 MOL       0.1884
     15 CB2        12.2714   18.3484   42.3588 C.3         1 MOL       0.1341
     16 CB3        10.9724   17.4880   42.2925 C.3         1 MOL       0.1144
     17 CB4        10.2436   17.6260   40.9147 C.3         1 MOL       0.1184
     18 CB5        11.2724   17.4895   39.7442 C.3         1 MOL       0.1134
     19 CB6        10.7317   17.8836   38.3534 C.3         1 MOL       0.0730
     20 OB2        12.9980   18.1625   43.5721 O.3         1 MOL      -0.3841
     21 OB3        10.0928   17.8553   43.3513 O.3         1 MOL      -0.3864
     22 OB4         9.0661   16.7781   40.7712 O.3         1 MOL      -0.3401
     23 OB5        12.4610   18.2901   39.9498 O.3         1 MOL      -0.3405
     24 OB6         9.6814   17.0356   37.9034 O.3         1 MOL      -0.3924
     25 CD1         9.1520   15.3380   40.9116 C.3         1 MOL       0.1884
     26 CD2         7.9953   14.6084   40.1819 C.3         1 MOL       0.1341
     27 CD3         6.6436   14.7831   40.9222 C.3         1 MOL       0.1143
     28 CD4         6.7627   14.3723   42.4205 C.3         1 MOL       0.1150
     29 CD5         7.9816   15.0980   43.0768 C.3         1 MOL       0.1133
     30 CD6         8.2863   14.5653   44.5026 C.3         1 MOL       0.0730
     31 OD2         7.8709   15.0486   38.8315 O.3         1 MOL      -0.3841
     32 OD3         5.6604   13.9995   40.2487 O.3         1 MOL      -0.3864
     33 OD4         5.5905   14.7270   43.1935 O.3         1 MOL      -0.3745
     34 OD5         9.1883   14.9271   42.2956 O.3         1 MOL      -0.3405
     35 OD6         9.1763   15.4371   45.1963 O.3         1 MOL      -0.3924
     36 CD7         4.3740   13.9860   43.0017 C.3         1 MOL       0.0370
     37 H1         10.4406   14.2726   36.8754 H           1 MOL       0.2523
     38 H2         13.5060   12.9143   39.7605 H           1 MOL       0.0843
     39 H3         12.4204   13.3310   41.5421 H           1 MOL       0.2137
     40 H4         14.6336   14.3809   41.6816 H           1 MOL       0.0674
     41 H5         16.5473   14.2802   40.6168 H           1 MOL       0.2103
     42 H6         15.6391   16.5158   40.7873 H           1 MOL       0.0650
     43 H7         14.3591   17.5282   38.8016 H           1 MOL       0.0603
     44 H8         13.1474   16.1458   37.4250 H           1 MOL       0.1812
     45 H9         16.1573   15.1591   38.0540 H           1 MOL       0.0581
     46 H10        16.7075   16.7958   38.4566 H           1 MOL       0.0581
     47 H11        16.3027   16.0998   36.1566 H           1 MOL       0.2095
     48 H12        14.0679   18.6696   41.1998 H           1 MOL       0.0938
     49 H13        12.0043   19.4044   42.3021 H           1 MOL       0.0671
     50 H14        11.2528   16.4458   42.4421 H           1 MOL       0.0648
     51 H15         9.8579   18.6487   40.8656 H           1 MOL       0.0651
     52 H16        11.5753   16.4493   39.6755 H           1 MOL       0.0647
     53 H17        11.5425   17.8039   37.6276 H           1 MOL       0.0584
     54 H18        10.3798   18.9162   38.3661 H           1 MOL       0.0584
     55 H19        12.9200   19.0151   44.0572 H           1 MOL       0.2101
     56 H20         9.9344   18.8149   43.2354 H           1 MOL       0.2100
     57 H21         8.8732   17.5698   38.0232 H           1 MOL       0.2095
     58 H22        10.0740   14.9772   40.4517 H           1 MOL       0.0938
     59 H23         8.2370   13.5391   40.1493 H           1 MOL       0.0671
     60 H24         6.3360   15.8320   40.8605 H           1 MOL       0.0648
     61 H25         6.9389   13.2916   42.4726 H           1 MOL       0.0649
     62 H26         7.7479   16.1648   43.1546 H           1 MOL       0.0647
     63 H27         8.7529   13.5813   44.4379 H           1 MOL       0.0584
     64 H28         7.3727   14.4707   45.0941 H           1 MOL       0.0584
     65 H29         7.5595   15.9730   38.8937 H           1 MOL       0.2101
     66 H30         5.9179   13.0653   40.4003 H           1 MOL       0.2100
     67 H31         8.6053   16.1609   45.5369 H           1 MOL       0.2095
     68 H32         3.6843   14.2647   43.7996 H           1 MOL       0.0524
     69 H33         4.5432   12.9086   43.0549 H           1 MOL       0.0524
     70 H34         3.9077   14.2396   42.0507 H           1 MOL       0.0524
@<TRIPOS>BOND
     1     1     2   2
     2     1     4   1
     3     1    11   1
     4     2     3   1
     5     4     5   1
     6     4     6   1
     7     6     7   1
     8     6     8   1
     9     8     9   1
    10     8    10   1
    11     9    14   1
    12    10    11   1
    13    10    12   1
    14    12    13   1
    15    14    15   1
    16    14    23   1
    17    15    16   1
    18    15    20   1
    19    16    17   1
    20    16    21   1
    21    17    18   1
    22    17    22   1
    23    18    19   1
    24    18    23   1
    25    19    24   1
    26    22    25   1
    27    25    26   1
    28    25    34   1
    29    26    27   1
    30    26    31   1
    31    27    28   1
    32    27    32   1
    33    28    29   1
    34    28    33   1
    35    29    30   1
    36    29    34   1
    37    30    35   1
    38    33    36   1
    39     3    37   1
    40     4    38   1
    41     5    39   1
    42     6    40   1
    43     7    41   1
    44     8    42   1
    45    10    43   1
    46    11    44   1
    47    12    45   1
    48    12    46   1
    49    13    47   1
    50    14    48   1
    51    15    49   1
    52    16    50   1
    53    17    51   1
    54    18    52   1
    55    19    53   1
    56    19    54   1
    57    20    55   1
    58    21    56   1
    59    24    57   1
    60    25    58   1
    61    26    59   1
    62    27    60   1
    63    28    61   1
    64    29    62   1
    65    30    63   1
    66    30    64   1
    67    31    65   1
    68    32    66   1
    69    35    67   1
    70    36    68   1
    71    36    69   1
    72    36    70   1
@<TRIPOS>SUBSTRUCTURE
     1  MOL      1

