@<TRIPOS>MOLECULE
1u33_ligand_019
    70    72
SMALL
GAST_HUCK
****
This file was generated by PARSER (from files_GN.cpp)

@<TRIPOS>ATOM
      1 CA1        14.8278   15.1507   36.7489 C.2         1 MOL       0.1322
      2 NA1        15.5565   14.8890   35.6414 N.2         1 MOL      -0.2068
      3 OA7        16.7220   15.4289   35.3961 O.3         1 MOL      -0.3046
      4 CA2        13.5228   14.4624   36.9118 C.3         1 MOL       0.1504
      5 OA2        12.8228   14.4367   35.6612 O.3         1 MOL      -0.3713
      6 CA3        12.6314   15.1726   37.9671 C.3         1 MOL       0.1237
      7 OA3        11.4885   14.3663   38.2546 O.3         1 MOL      -0.3840
      8 CA4        13.4147   15.4823   39.2741 C.3         1 MOL       0.1169
      9 OA4        12.4715   16.2186   40.0905 O.3         1 MOL      -0.3402
     10 CA5        14.7178   16.3078   38.9589 C.3         1 MOL       0.0902
     11 NA5        15.3143   15.9998   37.6880 N.pl3       1 MOL      -0.2990
     12 CA6        15.8038   16.2260   40.0860 C.3         1 MOL       0.0694
     13 OA6        17.0911   15.7772   39.6304 O.3         1 MOL      -0.3927
     14 CB1        12.5042   16.1927   41.5232 C.3         1 MOL       0.1884
     15 CB2        12.2189   14.7808   42.1073 C.3         1 MOL       0.1341
     16 CB3        11.8540   14.8455   43.6209 C.3         1 MOL       0.1144
     17 CB4        10.7808   15.9438   43.9472 C.3         1 MOL       0.1184
     18 CB5        11.1557   17.3018   43.2695 C.3         1 MOL       0.1134
     19 CB6        12.2353   18.1266   44.0197 C.3         1 MOL       0.0730
     20 OB2        11.1825   14.1275   41.3673 O.3         1 MOL      -0.3841
     21 OB3        13.0691   15.0392   44.3524 O.3         1 MOL      -0.3864
     22 OB4         9.5096   15.3894   43.5337 O.3         1 MOL      -0.3401
     23 OB5        11.4590   17.1094   41.8781 O.3         1 MOL      -0.3405
     24 OB6        11.6235   19.0883   44.8967 O.3         1 MOL      -0.3924
     25 CD1         8.3119   16.1954   43.7073 C.3         1 MOL       0.1884
     26 CD2         7.0884   15.3146   44.0793 C.3         1 MOL       0.1341
     27 CD3         6.6544   14.4020   42.8964 C.3         1 MOL       0.1143
     28 CD4         6.5154   15.1756   41.5479 C.3         1 MOL       0.1150
     29 CD5         7.7303   16.1319   41.3444 C.3         1 MOL       0.1133
     30 CD6         7.5503   17.1057   40.1538 C.3         1 MOL       0.0730
     31 OD2         7.3855   14.5392   45.2483 O.3         1 MOL      -0.3841
     32 OD3         5.3882   13.8212   43.2208 O.3         1 MOL      -0.3864
     33 OD4         6.4767   14.3004   40.4028 O.3         1 MOL      -0.3745
     34 OD5         7.9709   16.9422   42.5210 O.3         1 MOL      -0.3405
     35 OD6         8.2499   16.6438   38.9959 O.3         1 MOL      -0.3924
     36 CD7         5.6752   13.1092   40.4767 C.3         1 MOL       0.0370
     37 H1         16.8988   15.2075   34.4578 H           1 MOL       0.2523
     38 H2         13.7163   13.4284   37.2227 H           1 MOL       0.0843
     39 H3         12.1212   13.7619   35.7718 H           1 MOL       0.2137
     40 H4         12.2707   16.1138   37.5400 H           1 MOL       0.0674
     41 H5         11.8506   13.4981   38.5415 H           1 MOL       0.2103
     42 H6         13.6753   14.5171   39.7322 H           1 MOL       0.0650
     43 H7         14.4015   17.3521   38.8752 H           1 MOL       0.0603
     44 H8         16.1277   16.4664   37.4757 H           1 MOL       0.1812
     45 H9         15.4932   15.5523   40.9021 H           1 MOL       0.0581
     46 H10        15.9409   17.2295   40.5187 H           1 MOL       0.0581
     47 H11        17.7180   16.3892   40.0597 H           1 MOL       0.2095
     48 H12        13.4500   16.5811   41.8868 H           1 MOL       0.0938
     49 H13        13.1161   14.1577   41.9944 H           1 MOL       0.0671
     50 H14        11.4705   13.8556   43.9297 H           1 MOL       0.0648
     51 H15        10.7534   16.0610   45.0352 H           1 MOL       0.0651
     52 H16        10.2901   17.9434   43.2836 H           1 MOL       0.0647
     53 H17        12.8610   18.6713   43.2948 H           1 MOL       0.0584
     54 H18        12.9003   17.4921   44.6181 H           1 MOL       0.0584
     55 H19        10.3473   14.5099   41.7013 H           1 MOL       0.2101
     56 H20        12.8256   14.8759   45.2877 H           1 MOL       0.2100
     57 H21        12.2333   19.8657   44.8615 H           1 MOL       0.2095
     58 H22         8.4560   16.9063   44.5264 H           1 MOL       0.0938
     59 H23         6.2537   15.9840   44.3402 H           1 MOL       0.0671
     60 H24         7.3948   13.5982   42.7833 H           1 MOL       0.0648
     61 H25         5.6105   15.7920   41.5921 H           1 MOL       0.0649
     62 H26         8.6219   15.5371   41.1213 H           1 MOL       0.0647
     63 H27         7.9538   18.0885   40.4265 H           1 MOL       0.0584
     64 H28         6.4877   17.2254   39.9034 H           1 MOL       0.0584
     65 H29         7.4947   15.2172   45.9596 H           1 MOL       0.2101
     66 H30         5.6018   13.0463   43.7763 H           1 MOL       0.2100
     67 H31         8.3772   17.4531   38.4572 H           1 MOL       0.2095
     68 H32         5.5875   12.6949   39.4673 H           1 MOL       0.0524
     69 H33         4.6668   13.3148   40.8517 H           1 MOL       0.0524
     70 H34         6.1617   12.3646   41.1149 H           1 MOL       0.0524
@<TRIPOS>BOND
     1     1     2   2
     2     1     4   1
     3     1    11   1
     4     2     3   1
     5     4     5   1
     6     4     6   1
     7     6     7   1
     8     6     8   1
     9     8     9   1
    10     8    10   1
    11     9    14   1
    12    10    11   1
    13    10    12   1
    14    12    13   1
    15    14    15   1
    16    14    23   1
    17    15    16   1
    18    15    20   1
    19    16    17   1
    20    16    21   1
    21    17    18   1
    22    17    22   1
    23    18    19   1
    24    18    23   1
    25    19    24   1
    26    22    25   1
    27    25    26   1
    28    25    34   1
    29    26    27   1
    30    26    31   1
    31    27    28   1
    32    27    32   1
    33    28    29   1
    34    28    33   1
    35    29    30   1
    36    29    34   1
    37    30    35   1
    38    33    36   1
    39     3    37   1
    40     4    38   1
    41     5    39   1
    42     6    40   1
    43     7    41   1
    44     8    42   1
    45    10    43   1
    46    11    44   1
    47    12    45   1
    48    12    46   1
    49    13    47   1
    50    14    48   1
    51    15    49   1
    52    16    50   1
    53    17    51   1
    54    18    52   1
    55    19    53   1
    56    19    54   1
    57    20    55   1
    58    21    56   1
    59    24    57   1
    60    25    58   1
    61    26    59   1
    62    27    60   1
    63    28    61   1
    64    29    62   1
    65    30    63   1
    66    30    64   1
    67    31    65   1
    68    32    66   1
    69    35    67   1
    70    36    68   1
    71    36    69   1
    72    36    70   1
@<TRIPOS>SUBSTRUCTURE
     1  MOL      1

