@<TRIPOS>MOLECULE
1u33_ligand_047
    70    72
SMALL
GAST_HUCK
****
This file was generated by PARSER (from files_GN.cpp)

@<TRIPOS>ATOM
      1 CA1         5.1493   10.9242   34.9882 C.2         1 MOL       0.1322
      2 NA1         4.3696   10.1563   34.1976 N.2         1 MOL      -0.2068
      3 OA7         4.6746    8.9419   33.8337 O.3         1 MOL      -0.3046
      4 CA2         4.6857   12.2894   35.3411 C.3         1 MOL       0.1504
      5 OA2         4.2154   12.9768   34.1784 O.3         1 MOL      -0.3713
      6 CA3         5.8052   13.1551   35.9835 C.3         1 MOL       0.1237
      7 OA3         5.2273   14.3333   36.5434 O.3         1 MOL      -0.3840
      8 CA4         6.6093   12.3462   37.0434 C.3         1 MOL       0.1169
      9 OA4         7.6919   13.1362   37.5903 O.3         1 MOL      -0.3402
     10 CA5         7.2230   11.0885   36.3463 C.3         1 MOL       0.0902
     11 NA5         6.3156   10.4158   35.4629 N.pl3       1 MOL      -0.2990
     12 CA6         7.7816   10.0576   37.3624 C.3         1 MOL       0.0694
     13 OA6         6.7395    9.3419   38.0201 O.3         1 MOL      -0.3927
     14 CB1         7.3989   14.0229   38.6911 C.3         1 MOL       0.1884
     15 CB2         8.4230   15.1867   38.6775 C.3         1 MOL       0.1341
     16 CB3         8.1674   16.1207   39.8940 C.3         1 MOL       0.1144
     17 CB4         8.1266   15.3337   41.2371 C.3         1 MOL       0.1184
     18 CB5         7.2606   14.0278   41.1481 C.3         1 MOL       0.1134
     19 CB6         5.7493   14.2580   41.4097 C.3         1 MOL       0.0730
     20 OB2         9.7466   14.6524   38.7300 O.3         1 MOL      -0.3841
     21 OB3         6.9470   16.8592   39.7111 O.3         1 MOL      -0.3864
     22 OB4         9.4965   15.0628   41.6044 O.3         1 MOL      -0.3401
     23 OB5         7.4947   13.2944   39.9281 O.3         1 MOL      -0.3405
     24 OB6         5.0696   13.0222   41.6230 O.3         1 MOL      -0.3924
     25 CD1         9.9299   14.8252   42.9665 C.3         1 MOL       0.1884
     26 CD2         9.6646   15.9530   44.0050 C.3         1 MOL       0.1341
     27 CD3        10.3551   17.2659   43.5374 C.3         1 MOL       0.1143
     28 CD4        11.8846   17.0491   43.2891 C.3         1 MOL       0.1150
     29 CD5        12.1487   15.7329   42.4799 C.3         1 MOL       0.1133
     30 CD6        13.6432   15.2996   42.4584 C.3         1 MOL       0.0730
     31 OD2         8.2679   16.1016   44.2407 O.3         1 MOL      -0.3841
     32 OD3        10.1310   18.2782   44.5244 O.3         1 MOL      -0.3864
     33 OD4        12.5133   18.1058   42.5309 O.3         1 MOL      -0.3745
     34 OD5        11.3606   14.6125   42.9568 O.3         1 MOL      -0.3405
     35 OD6        14.2244   15.2073   43.7671 O.3         1 MOL      -0.3924
     36 CD7        12.5234   19.4303   43.0816 C.3         1 MOL       0.0370
     37 H1          3.9165    8.6451   33.2894 H           1 MOL       0.2523
     38 H2          3.8543   12.1937   36.0460 H           1 MOL       0.0843
     39 H3          3.4405   12.4651   33.8631 H           1 MOL       0.2137
     40 H4          6.5042   13.4858   35.2029 H           1 MOL       0.0674
     41 H5          4.8383   14.8283   35.7923 H           1 MOL       0.2103
     42 H6          5.9259   12.0196   37.8319 H           1 MOL       0.0650
     43 H7          8.0531   11.4202   35.7159 H           1 MOL       0.0603
     44 H8          6.5704    9.5325   35.1489 H           1 MOL       0.1812
     45 H9          8.3735   10.5667   38.1185 H           1 MOL       0.0581
     46 H10         8.4290    9.3413   36.8477 H           1 MOL       0.0581
     47 H11         6.4289    8.6719   37.3644 H           1 MOL       0.2095
     48 H12         6.3985   14.4491   38.5976 H           1 MOL       0.0938
     49 H13         8.3178   15.7533   37.7436 H           1 MOL       0.0671
     50 H14         8.9728   16.8641   39.9383 H           1 MOL       0.0648
     51 H15         7.6828   16.0164   41.9553 H           1 MOL       0.0651
     52 H16         7.5901   13.3659   41.9439 H           1 MOL       0.0647
     53 H17         5.2761   14.7779   40.5768 H           1 MOL       0.0584
     54 H18         5.6201   14.8722   42.3005 H           1 MOL       0.0584
     55 H19        10.3469   15.4245   38.6587 H           1 MOL       0.2101
     56 H20         7.1824   17.5772   39.0841 H           1 MOL       0.2100
     57 H21         5.5278   12.5978   42.3749 H           1 MOL       0.2095
     58 H22         9.4690   13.9097   43.3366 H           1 MOL       0.0938
     59 H23        10.1020   15.6472   44.9659 H           1 MOL       0.0671
     60 H24         9.8874   17.6023   42.6066 H           1 MOL       0.0648
     61 H25        12.3700   16.9590   44.2657 H           1 MOL       0.0649
     62 H26        11.8760   15.9091   41.4314 H           1 MOL       0.0647
     63 H27        14.2365   16.0113   41.8685 H           1 MOL       0.0584
     64 H28        13.7290   14.3135   41.9791 H           1 MOL       0.0584
     65 H29         8.1661   16.6636   45.0273 H           1 MOL       0.2101
     66 H30         9.1625   18.2775   44.6862 H           1 MOL       0.2100
     67 H31        15.0983   14.7631   43.6339 H           1 MOL       0.2095
     68 H32        13.2116   20.0413   42.4940 H           1 MOL       0.0524
     69 H33        12.8585   19.4387   44.1233 H           1 MOL       0.0524
     70 H34        11.5305   19.8771   43.0102 H           1 MOL       0.0524
@<TRIPOS>BOND
     1     1     2   2
     2     1     4   1
     3     1    11   1
     4     2     3   1
     5     4     5   1
     6     4     6   1
     7     6     7   1
     8     6     8   1
     9     8     9   1
    10     8    10   1
    11     9    14   1
    12    10    11   1
    13    10    12   1
    14    12    13   1
    15    14    15   1
    16    14    23   1
    17    15    16   1
    18    15    20   1
    19    16    17   1
    20    16    21   1
    21    17    18   1
    22    17    22   1
    23    18    19   1
    24    18    23   1
    25    19    24   1
    26    22    25   1
    27    25    26   1
    28    25    34   1
    29    26    27   1
    30    26    31   1
    31    27    28   1
    32    27    32   1
    33    28    29   1
    34    28    33   1
    35    29    30   1
    36    29    34   1
    37    30    35   1
    38    33    36   1
    39     3    37   1
    40     4    38   1
    41     5    39   1
    42     6    40   1
    43     7    41   1
    44     8    42   1
    45    10    43   1
    46    11    44   1
    47    12    45   1
    48    12    46   1
    49    13    47   1
    50    14    48   1
    51    15    49   1
    52    16    50   1
    53    17    51   1
    54    18    52   1
    55    19    53   1
    56    19    54   1
    57    20    55   1
    58    21    56   1
    59    24    57   1
    60    25    58   1
    61    26    59   1
    62    27    60   1
    63    28    61   1
    64    29    62   1
    65    30    63   1
    66    30    64   1
    67    31    65   1
    68    32    66   1
    69    35    67   1
    70    36    68   1
    71    36    69   1
    72    36    70   1
@<TRIPOS>SUBSTRUCTURE
     1  MOL      1

