@<TRIPOS>MOLECULE
1u33_ligand_051
    70    72
SMALL
GAST_HUCK
****
This file was generated by PARSER (from files_GN.cpp)

@<TRIPOS>ATOM
      1 CA1        15.4895   15.4192   36.2512 C.2         1 MOL       0.1322
      2 NA1        16.1715   15.6524   35.1092 N.2         1 MOL      -0.2068
      3 OA7        15.6989   16.1919   34.0213 O.3         1 MOL      -0.3046
      4 CA2        16.2382   14.8316   37.3911 C.3         1 MOL       0.1504
      5 OA2        16.9916   13.6986   36.9509 O.3         1 MOL      -0.3713
      6 CA3        15.3310   14.3869   38.5685 C.3         1 MOL       0.1237
      7 OA3        16.1150   14.1926   39.7485 O.3         1 MOL      -0.3840
      8 CA4        14.2144   15.4269   38.8228 C.3         1 MOL       0.1169
      9 OA4        13.3789   14.9581   39.8992 O.3         1 MOL      -0.3402
     10 CA5        13.3643   15.5929   37.5248 C.3         1 MOL       0.0902
     11 NA5        14.1769   15.7486   36.3497 N.pl3       1 MOL      -0.2990
     12 CA6        12.3972   16.8056   37.6243 C.3         1 MOL       0.0694
     13 OA6        11.5949   16.9483   36.4503 O.3         1 MOL      -0.3927
     14 CB1        13.2257   15.7840   41.0665 C.3         1 MOL       0.1884
     15 CB2        12.5469   14.9204   42.1653 C.3         1 MOL       0.1341
     16 CB3        12.0604   15.8031   43.3469 C.3         1 MOL       0.1144
     17 CB4        11.2337   17.0249   42.8469 C.3         1 MOL       0.1184
     18 CB5        11.9952   17.8237   41.7309 C.3         1 MOL       0.1134
     19 CB6        13.1326   18.7673   42.2085 C.3         1 MOL       0.0730
     20 OB2        11.4706   14.1515   41.6186 O.3         1 MOL      -0.3841
     21 OB3        13.1663   16.2360   44.1373 O.3         1 MOL      -0.3864
     22 OB4        10.0150   16.4978   42.2686 O.3         1 MOL      -0.3401
     23 OB5        12.4262   16.9241   40.6729 O.3         1 MOL      -0.3405
     24 OB6        13.0509   19.1277   43.5848 O.3         1 MOL      -0.3924
     25 CD1         8.7364   17.0599   42.6361 C.3         1 MOL       0.1884
     26 CD2         8.1003   16.2842   43.8206 C.3         1 MOL       0.1341
     27 CD3         7.6237   14.8727   43.3656 C.3         1 MOL       0.1143
     28 CD4         6.7507   14.9335   42.0824 C.3         1 MOL       0.1150
     29 CD5         7.4906   15.7409   40.9668 C.3         1 MOL       0.1133
     30 CD6         6.6299   15.9799   39.7045 C.3         1 MOL       0.0730
     31 OD2         9.0176   16.1718   44.9012 O.3         1 MOL      -0.3841
     32 OD3         6.8939   14.2555   44.4275 O.3         1 MOL      -0.3864
     33 OD4         6.4916   13.6000   41.5888 O.3         1 MOL      -0.3745
     34 OD5         7.8879   17.0391   41.4760 O.3         1 MOL      -0.3405
     35 OD6         7.4497   16.2304   38.5615 O.3         1 MOL      -0.3924
     36 CD7         5.1645   13.0729   41.7994 C.3         1 MOL       0.0370
     37 H1         15.4773   17.1189   34.2333 H           1 MOL       0.2523
     38 H2         16.9416   15.5847   37.7593 H           1 MOL       0.0843
     39 H3         16.3262   13.0756   36.5894 H           1 MOL       0.2137
     40 H4         14.8598   13.4252   38.3344 H           1 MOL       0.0674
     41 H5         16.6489   13.3937   39.5733 H           1 MOL       0.2103
     42 H6         14.6802   16.3942   39.0546 H           1 MOL       0.0650
     43 H7         12.7591   14.6964   37.3739 H           1 MOL       0.0603
     44 H8         13.7503   16.1025   35.5518 H           1 MOL       0.1812
     45 H9         12.9766   17.7305   37.7701 H           1 MOL       0.0581
     46 H10        11.7271   16.6868   38.4806 H           1 MOL       0.0581
     47 H11        11.4230   17.9100   36.3917 H           1 MOL       0.2095
     48 H12        14.2153   16.0937   41.4256 H           1 MOL       0.0938
     49 H13        13.2710   14.1996   42.5478 H           1 MOL       0.0671
     50 H14        11.4276   15.1937   43.9987 H           1 MOL       0.0648
     51 H15        11.0228   17.6774   43.7113 H           1 MOL       0.0651
     52 H16        11.2444   18.4877   41.2747 H           1 MOL       0.0647
     53 H17        13.1243   19.6830   41.6114 H           1 MOL       0.0584
     54 H18        14.0986   18.2909   42.0388 H           1 MOL       0.0584
     55 H19        10.8100   14.7986   41.2976 H           1 MOL       0.2101
     56 H20        12.8423   16.2526   45.0675 H           1 MOL       0.2100
     57 H21        12.7059   20.0540   43.6037 H           1 MOL       0.2095
     58 H22         8.8428   18.1085   42.9129 H           1 MOL       0.0938
     59 H23         7.2308   16.8445   44.1730 H           1 MOL       0.0671
     60 H24         8.5030   14.2490   43.1724 H           1 MOL       0.0648
     61 H25         5.8231   15.4697   42.2947 H           1 MOL       0.0649
     62 H26         8.3760   15.1776   40.6563 H           1 MOL       0.0647
     63 H27         5.9581   16.8335   39.8489 H           1 MOL       0.0584
     64 H28         6.0139   15.1008   39.4753 H           1 MOL       0.0584
     65 H29         8.4648   15.9929   45.6870 H           1 MOL       0.2101
     66 H30         7.5499   14.0491   45.1273 H           1 MOL       0.2100
     67 H31         7.6565   17.1910   38.5885 H           1 MOL       0.2095
     68 H32         5.1238   12.0609   41.3887 H           1 MOL       0.0524
     69 H33         4.4221   13.6863   41.2787 H           1 MOL       0.0524
     70 H34         4.9054   13.0166   42.8627 H           1 MOL       0.0524
@<TRIPOS>BOND
     1     1     2   2
     2     1     4   1
     3     1    11   1
     4     2     3   1
     5     4     5   1
     6     4     6   1
     7     6     7   1
     8     6     8   1
     9     8     9   1
    10     8    10   1
    11     9    14   1
    12    10    11   1
    13    10    12   1
    14    12    13   1
    15    14    15   1
    16    14    23   1
    17    15    16   1
    18    15    20   1
    19    16    17   1
    20    16    21   1
    21    17    18   1
    22    17    22   1
    23    18    19   1
    24    18    23   1
    25    19    24   1
    26    22    25   1
    27    25    26   1
    28    25    34   1
    29    26    27   1
    30    26    31   1
    31    27    28   1
    32    27    32   1
    33    28    29   1
    34    28    33   1
    35    29    30   1
    36    29    34   1
    37    30    35   1
    38    33    36   1
    39     3    37   1
    40     4    38   1
    41     5    39   1
    42     6    40   1
    43     7    41   1
    44     8    42   1
    45    10    43   1
    46    11    44   1
    47    12    45   1
    48    12    46   1
    49    13    47   1
    50    14    48   1
    51    15    49   1
    52    16    50   1
    53    17    51   1
    54    18    52   1
    55    19    53   1
    56    19    54   1
    57    20    55   1
    58    21    56   1
    59    24    57   1
    60    25    58   1
    61    26    59   1
    62    27    60   1
    63    28    61   1
    64    29    62   1
    65    30    63   1
    66    30    64   1
    67    31    65   1
    68    32    66   1
    69    35    67   1
    70    36    68   1
    71    36    69   1
    72    36    70   1
@<TRIPOS>SUBSTRUCTURE
     1  MOL      1

