@<TRIPOS>MOLECULE
1u33_ligand_039
    70    72
SMALL
GAST_HUCK
****
This file was generated by PARSER (from files_GN.cpp)

@<TRIPOS>ATOM
      1 CA1         5.8174   14.4392   44.8355 C.2         1 MOL       0.1322
      2 NA1         5.0534   14.3857   45.9504 N.2         1 MOL      -0.2068
      3 OA7         5.5183   14.3508   47.1722 O.3         1 MOL      -0.3046
      4 CA2         5.1741   14.4587   43.4992 C.3         1 MOL       0.1504
      5 OA2         4.2220   13.3984   43.4134 O.3         1 MOL      -0.3713
      6 CA3         6.1898   14.3150   42.3299 C.3         1 MOL       0.1237
      7 OA3         5.5545   14.7189   41.1166 O.3         1 MOL      -0.3840
      8 CA4         7.4905   15.1368   42.5582 C.3         1 MOL       0.1169
      9 OA4         8.3358   14.8386   41.4149 O.3         1 MOL      -0.3402
     10 CA5         8.1288   14.7654   43.9547 C.3         1 MOL       0.0902
     11 NA5         7.1594   14.4958   44.9765 N.pl3       1 MOL      -0.2990
     12 CA6         9.1467   15.7971   44.5555 C.3         1 MOL       0.0694
     13 OA6         9.1611   17.0576   43.8910 O.3         1 MOL      -0.3927
     14 CB1         9.6484   15.4141   41.3207 C.3         1 MOL       0.1884
     15 CB2         9.6936   16.8666   40.7815 C.3         1 MOL       0.1341
     16 CB3        11.1680   17.3626   40.8139 C.3         1 MOL       0.1144
     17 CB4        12.1517   16.3646   40.1269 C.3         1 MOL       0.1184
     18 CB5        11.8531   14.8578   40.4480 C.3         1 MOL       0.1134
     19 CB6        12.5692   14.3175   41.7173 C.3         1 MOL       0.0730
     20 OB2         9.1666   16.9094   39.4525 O.3         1 MOL      -0.3841
     21 OB3        11.5604   17.5693   42.1766 O.3         1 MOL      -0.3864
     22 OB4        12.0962   16.4871   38.6905 O.3         1 MOL      -0.3401
     23 OB5        10.4358   14.5720   40.4630 O.3         1 MOL      -0.3405
     24 OB6        13.9750   14.5511   41.6638 O.3         1 MOL      -0.3924
     25 CD1        12.9925   17.4032   38.0219 C.3         1 MOL       0.1884
     26 CD2        13.0906   17.0127   36.5269 C.3         1 MOL       0.1341
     27 CD3        13.8369   15.6609   36.3645 C.3         1 MOL       0.1143
     28 CD4        15.2165   15.6657   37.0888 C.3         1 MOL       0.1150
     29 CD5        15.0555   16.1959   38.5443 C.3         1 MOL       0.1133
     30 CD6        16.3978   16.4430   39.2749 C.3         1 MOL       0.0730
     31 OD2        11.7845   16.9455   35.9590 O.3         1 MOL      -0.3841
     32 OD3        14.0281   15.3783   34.9787 O.3         1 MOL      -0.3864
     33 OD4        15.7356   14.3218   37.1797 O.3         1 MOL      -0.3745
     34 OD5        14.3306   17.4467   38.5678 O.3         1 MOL      -0.3405
     35 OD6        17.0788   15.2311   39.5668 O.3         1 MOL      -0.3924
     36 CD7        16.7854   13.9565   36.2768 C.3         1 MOL       0.0370
     37 H1          6.1626   15.0932   47.2398 H           1 MOL       0.2523
     38 H2          4.6325   15.3994   43.4037 H           1 MOL       0.0843
     39 H3          4.7603   12.5850   43.5181 H           1 MOL       0.2137
     40 H4          6.4701   13.2634   42.2234 H           1 MOL       0.0674
     41 H5          6.1519   14.4259   40.3970 H           1 MOL       0.2103
     42 H6          7.2026   16.1910   42.5415 H           1 MOL       0.0650
     43 H7          8.6656   13.8205   43.8254 H           1 MOL       0.0603
     44 H8          7.5025   14.3723   45.8734 H           1 MOL       0.1812
     45 H9         10.1570   15.3948   44.5173 H           1 MOL       0.0581
     46 H10         8.9542   15.9912   45.6141 H           1 MOL       0.0581
     47 H11         8.4687   17.6000   44.3297 H           1 MOL       0.2095
     48 H12        10.0990   15.3898   42.3041 H           1 MOL       0.0938
     49 H13         9.0865   17.5244   41.4085 H           1 MOL       0.0671
     50 H14        11.2333   18.3377   40.3252 H           1 MOL       0.0648
     51 H15        13.1560   16.5945   40.4933 H           1 MOL       0.0651
     52 H16        12.2350   14.2488   39.6240 H           1 MOL       0.0647
     53 H17        12.3965   13.2440   41.7999 H           1 MOL       0.0584
     54 H18        12.1906   14.7990   42.6179 H           1 MOL       0.0584
     55 H19         8.7801   17.8083   39.3455 H           1 MOL       0.2101
     56 H20        12.4118   18.0573   42.1406 H           1 MOL       0.2100
     57 H21        14.2780   14.0906   40.8523 H           1 MOL       0.2095
     58 H22        12.5709   18.4109   38.0999 H           1 MOL       0.0938
     59 H23        13.6493   17.7914   35.9965 H           1 MOL       0.0671
     60 H24        13.2217   14.8605   36.7900 H           1 MOL       0.0648
     61 H25        15.9011   16.3412   36.5560 H           1 MOL       0.0649
     62 H26        14.5150   15.4496   39.1250 H           1 MOL       0.0647
     63 H27        16.2094   16.9631   40.2160 H           1 MOL       0.0584
     64 H28        17.0479   17.0649   38.6611 H           1 MOL       0.0584
     65 H29        11.4090   17.8364   36.1253 H           1 MOL       0.2101
     66 H30        13.1361   15.1839   34.6232 H           1 MOL       0.2100
     67 H31        16.5314   14.7808   40.2496 H           1 MOL       0.2095
     68 H32        17.0633   12.9215   36.4783 H           1 MOL       0.0524
     69 H33        17.6643   14.5845   36.4337 H           1 MOL       0.0524
     70 H34        16.4594   14.0302   35.2382 H           1 MOL       0.0524
@<TRIPOS>BOND
     1     1     2   2
     2     1     4   1
     3     1    11   1
     4     2     3   1
     5     4     5   1
     6     4     6   1
     7     6     7   1
     8     6     8   1
     9     8     9   1
    10     8    10   1
    11     9    14   1
    12    10    11   1
    13    10    12   1
    14    12    13   1
    15    14    15   1
    16    14    23   1
    17    15    16   1
    18    15    20   1
    19    16    17   1
    20    16    21   1
    21    17    18   1
    22    17    22   1
    23    18    19   1
    24    18    23   1
    25    19    24   1
    26    22    25   1
    27    25    26   1
    28    25    34   1
    29    26    27   1
    30    26    31   1
    31    27    28   1
    32    27    32   1
    33    28    29   1
    34    28    33   1
    35    29    30   1
    36    29    34   1
    37    30    35   1
    38    33    36   1
    39     3    37   1
    40     4    38   1
    41     5    39   1
    42     6    40   1
    43     7    41   1
    44     8    42   1
    45    10    43   1
    46    11    44   1
    47    12    45   1
    48    12    46   1
    49    13    47   1
    50    14    48   1
    51    15    49   1
    52    16    50   1
    53    17    51   1
    54    18    52   1
    55    19    53   1
    56    19    54   1
    57    20    55   1
    58    21    56   1
    59    24    57   1
    60    25    58   1
    61    26    59   1
    62    27    60   1
    63    28    61   1
    64    29    62   1
    65    30    63   1
    66    30    64   1
    67    31    65   1
    68    32    66   1
    69    35    67   1
    70    36    68   1
    71    36    69   1
    72    36    70   1
@<TRIPOS>SUBSTRUCTURE
     1  MOL      1

