@<TRIPOS>MOLECULE
1u33_ligand_085
    70    72
SMALL
GAST_HUCK
****
This file was generated by PARSER (from files_GN.cpp)

@<TRIPOS>ATOM
      1 CA1        14.6770   16.7298   39.2652 C.2         1 MOL       0.1322
      2 NA1        15.7824   16.5446   38.5081 N.2         1 MOL      -0.2068
      3 OA7        16.9304   16.0943   38.9302 O.3         1 MOL      -0.3046
      4 CA2        13.4726   17.2492   38.5898 C.3         1 MOL       0.1504
      5 OA2        13.8134   18.3576   37.7501 O.3         1 MOL      -0.3713
      6 CA3        12.3497   17.6694   39.5895 C.3         1 MOL       0.1237
      7 OA3        11.1812   17.9398   38.8015 O.3         1 MOL      -0.3840
      8 CA4        12.1555   16.5739   40.6941 C.3         1 MOL       0.1169
      9 OA4        11.1623   16.7597   41.7314 O.3         1 MOL      -0.3402
     10 CA5        13.5179   16.3819   41.4352 C.3         1 MOL       0.0902
     11 NA5        14.6701   16.3831   40.5733 N.pl3       1 MOL      -0.2990
     12 CA6        13.5589   15.0929   42.3089 C.3         1 MOL       0.0694
     13 OA6        14.1531   15.3708   43.5876 O.3         1 MOL      -0.3927
     14 CB1        10.0220   17.6441   41.6682 C.3         1 MOL       0.1884
     15 CB2         9.1292   17.5320   42.9462 C.3         1 MOL       0.1341
     16 CB3         8.2766   16.2286   42.9500 C.3         1 MOL       0.1144
     17 CB4         7.5091   16.0640   41.6061 C.3         1 MOL       0.1184
     18 CB5         8.5021   16.1881   40.4073 C.3         1 MOL       0.1134
     19 CB6         7.8244   16.1472   39.0164 C.3         1 MOL       0.0730
     20 OB2         9.9364   17.6256   44.1195 O.3         1 MOL      -0.3841
     21 OB3         7.3147   16.2663   43.9968 O.3         1 MOL      -0.3864
     22 OB4         6.8396   14.7753   41.5584 O.3         1 MOL      -0.3401
     23 OB5         9.2104   17.4472   40.4930 O.3         1 MOL      -0.3405
     24 OB6         8.7411   16.5012   37.9888 O.3         1 MOL      -0.3924
     25 CD1         5.4312   14.7145   41.2115 C.3         1 MOL       0.1884
     26 CD2         5.1125   13.2853   40.6900 C.3         1 MOL       0.1341
     27 CD3         3.6915   13.1740   40.0567 C.3         1 MOL       0.1143
     28 CD4         3.3641   14.3469   39.0801 C.3         1 MOL       0.1150
     29 CD5         3.7538   15.7371   39.6771 C.3         1 MOL       0.1133
     30 CD6         2.7280   16.4401   40.6163 C.3         1 MOL       0.0730
     31 OD2         6.1007   12.8811   39.7391 O.3         1 MOL      -0.3841
     32 OD3         2.7086   13.0583   41.0847 O.3         1 MOL      -0.3864
     33 OD4         4.1194   14.0908   37.8678 O.3         1 MOL      -0.3745
     34 OD5         5.0921   15.6964   40.2102 O.3         1 MOL      -0.3405
     35 OD6         2.1760   15.6296   41.6420 O.3         1 MOL      -0.3924
     36 CD7         3.6413   14.6494   36.6329 C.3         1 MOL       0.0370
     37 H1         17.2579   16.7729   39.5553 H           1 MOL       0.2523
     38 H2         13.0912   16.4582   37.9463 H           1 MOL       0.0843
     39 H3         13.8474   19.1314   38.3508 H           1 MOL       0.2137
     40 H4         12.6339   18.6202   40.0738 H           1 MOL       0.0674
     41 H5         11.4466   18.6189   38.1468 H           1 MOL       0.2103
     42 H6         11.8979   15.6561   40.1814 H           1 MOL       0.0650
     43 H7         13.6486   17.2359   42.1034 H           1 MOL       0.0603
     44 H8         15.5182   16.1000   40.9592 H           1 MOL       0.1812
     45 H9         14.1438   14.3032   41.8169 H           1 MOL       0.0581
     46 H10        12.5582   14.7019   42.5136 H           1 MOL       0.0581
     47 H11        14.5811   14.5290   43.8945 H           1 MOL       0.2095
     48 H12        10.4121   18.6654   41.6197 H           1 MOL       0.0938
     49 H13         8.4464   18.3894   42.9615 H           1 MOL       0.0671
     50 H14         8.9260   15.3736   43.1098 H           1 MOL       0.0648
     51 H15         6.8008   16.8928   41.5420 H           1 MOL       0.0651
     52 H16         9.2253   15.3606   40.4512 H           1 MOL       0.0647
     53 H17         6.9894   16.8460   38.9839 H           1 MOL       0.0584
     54 H18         7.4617   15.1445   38.8079 H           1 MOL       0.0584
     55 H19        10.3988   16.7652   44.1924 H           1 MOL       0.2101
     56 H20         7.7894   16.4392   44.8436 H           1 MOL       0.2100
     57 H21         8.6729   17.4792   37.9359 H           1 MOL       0.2095
     58 H22         4.8519   14.9091   42.1198 H           1 MOL       0.0938
     59 H23         5.1866   12.5797   41.5215 H           1 MOL       0.0671
     60 H24         3.6356   12.2356   39.4974 H           1 MOL       0.0648
     61 H25         2.2901   14.3222   38.8598 H           1 MOL       0.0649
     62 H26         3.8385   16.4297   38.8375 H           1 MOL       0.0647
     63 H27         1.9075   16.8423   40.0198 H           1 MOL       0.0584
     64 H28         3.2300   17.2821   41.1036 H           1 MOL       0.0584
     65 H29         5.9691   13.4548   38.9557 H           1 MOL       0.2101
     66 H30         1.9046   12.7237   40.6313 H           1 MOL       0.2100
     67 H31         1.5324   15.0532   41.1897 H           1 MOL       0.2095
     68 H32         4.3293   14.3587   35.8388 H           1 MOL       0.0524
     69 H33         3.6020   15.7393   36.6638 H           1 MOL       0.0524
     70 H34         2.6533   14.2589   36.3849 H           1 MOL       0.0524
@<TRIPOS>BOND
     1     1     2   2
     2     1     4   1
     3     1    11   1
     4     2     3   1
     5     4     5   1
     6     4     6   1
     7     6     7   1
     8     6     8   1
     9     8     9   1
    10     8    10   1
    11     9    14   1
    12    10    11   1
    13    10    12   1
    14    12    13   1
    15    14    15   1
    16    14    23   1
    17    15    16   1
    18    15    20   1
    19    16    17   1
    20    16    21   1
    21    17    18   1
    22    17    22   1
    23    18    19   1
    24    18    23   1
    25    19    24   1
    26    22    25   1
    27    25    26   1
    28    25    34   1
    29    26    27   1
    30    26    31   1
    31    27    28   1
    32    27    32   1
    33    28    29   1
    34    28    33   1
    35    29    30   1
    36    29    34   1
    37    30    35   1
    38    33    36   1
    39     3    37   1
    40     4    38   1
    41     5    39   1
    42     6    40   1
    43     7    41   1
    44     8    42   1
    45    10    43   1
    46    11    44   1
    47    12    45   1
    48    12    46   1
    49    13    47   1
    50    14    48   1
    51    15    49   1
    52    16    50   1
    53    17    51   1
    54    18    52   1
    55    19    53   1
    56    19    54   1
    57    20    55   1
    58    21    56   1
    59    24    57   1
    60    25    58   1
    61    26    59   1
    62    27    60   1
    63    28    61   1
    64    29    62   1
    65    30    63   1
    66    30    64   1
    67    31    65   1
    68    32    66   1
    69    35    67   1
    70    36    68   1
    71    36    69   1
    72    36    70   1
@<TRIPOS>SUBSTRUCTURE
     1  MOL      1

