@<TRIPOS>MOLECULE
1u33_ligand_065
    70    72
SMALL
GAST_HUCK
****
This file was generated by PARSER (from files_GN.cpp)

@<TRIPOS>ATOM
      1 CA1         6.1875   14.7751   43.9885 C.2         1 MOL       0.1322
      2 NA1         5.0364   14.8476   44.6867 N.2         1 MOL      -0.2068
      3 OA7         4.9125   15.0966   45.9668 O.3         1 MOL      -0.3046
      4 CA2         6.1166   14.5291   42.5287 C.3         1 MOL       0.1504
      5 OA2         5.1995   13.4682   42.2525 O.3         1 MOL      -0.3713
      6 CA3         7.4923   14.1793   41.8959 C.3         1 MOL       0.1237
      7 OA3         7.4061   14.3138   40.4744 O.3         1 MOL      -0.3840
      8 CA4         8.6516   15.0501   42.4582 C.3         1 MOL       0.1169
      9 OA4         9.8491   14.5579   41.8055 O.3         1 MOL      -0.3402
     10 CA5         8.6736   14.9236   44.0265 C.3         1 MOL       0.0902
     11 NA5         7.3671   14.9790   44.6155 N.pl3       1 MOL      -0.2990
     12 CA6         9.5528   15.9561   44.7917 C.3         1 MOL       0.0694
     13 OA6         9.5555   17.2439   44.1777 O.3         1 MOL      -0.3927
     14 CB1        11.1006   15.2475   41.9785 C.3         1 MOL       0.1884
     15 CB2        11.5761   16.0586   40.7479 C.3         1 MOL       0.1341
     16 CB3        12.9656   16.6837   41.0831 C.3         1 MOL       0.1144
     17 CB4        13.9916   15.6088   41.5744 C.3         1 MOL       0.1184
     18 CB5        13.3887   14.7264   42.7113 C.3         1 MOL       0.1134
     19 CB6        13.3669   15.3305   44.1486 C.3         1 MOL       0.0730
     20 OB2        11.6267   15.2260   39.5907 O.3         1 MOL      -0.3841
     21 OB3        12.8124   17.7105   42.0724 O.3         1 MOL      -0.3864
     22 OB4        14.3152   14.7250   40.4726 O.3         1 MOL      -0.3401
     23 OB5        12.0770   14.2410   42.3357 O.3         1 MOL      -0.3405
     24 OB6        14.6713   15.5981   44.6514 O.3         1 MOL      -0.3924
     25 CD1        15.4985   14.9095   39.6624 C.3         1 MOL       0.1884
     26 CD2        15.5963   16.2531   38.8942 C.3         1 MOL       0.1341
     27 CD3        14.4296   16.3662   37.8743 C.3         1 MOL       0.1143
     28 CD4        14.4560   15.1710   36.8727 C.3         1 MOL       0.1150
     29 CD5        14.4953   13.8364   37.6877 C.3         1 MOL       0.1133
     30 CD6        14.7117   12.5807   36.7973 C.3         1 MOL       0.0730
     31 OD2        15.6052   17.3677   39.7841 O.3         1 MOL      -0.3841
     32 OD3        14.5252   17.6276   37.2134 O.3         1 MOL      -0.3864
     33 OD4        13.2702   15.1590   36.0399 O.3         1 MOL      -0.3745
     34 OD5        15.5448   13.8361   38.6936 O.3         1 MOL      -0.3405
     35 OD6        15.9916   12.5722   36.1679 O.3         1 MOL      -0.3924
     36 CD7        13.3108   15.8922   34.8017 C.3         1 MOL       0.0370
     37 H1          5.7982   15.3540   46.2984 H           1 MOL       0.2523
     38 H2          5.7239   15.4375   42.0596 H           1 MOL       0.0843
     39 H3          5.5462   12.6966   42.7502 H           1 MOL       0.2137
     40 H4          7.7149   13.1289   42.1139 H           1 MOL       0.0674
     41 H5          8.1974   13.8438   40.1211 H           1 MOL       0.2103
     42 H6          8.4613   16.0862   42.1657 H           1 MOL       0.0650
     43 H7          9.0589   13.9267   44.2750 H           1 MOL       0.0603
     44 H8          7.3326   15.2027   45.5567 H           1 MOL       0.1812
     45 H9         10.5751   15.5949   44.8628 H           1 MOL       0.0581
     46 H10         9.2178   16.0744   45.8181 H           1 MOL       0.0581
     47 H11         8.7886   17.7223   44.5595 H           1 MOL       0.2095
     48 H12        11.0239   15.9587   42.7848 H           1 MOL       0.0938
     49 H13        10.8622   16.8574   40.5419 H           1 MOL       0.0671
     50 H14        13.3475   17.1946   40.2006 H           1 MOL       0.0648
     51 H15        14.8914   16.1018   41.9484 H           1 MOL       0.0651
     52 H16        14.0144   13.8376   42.7913 H           1 MOL       0.0647
     53 H17        12.8799   14.6229   44.8206 H           1 MOL       0.0584
     54 H18        12.8083   16.2647   44.1960 H           1 MOL       0.0584
     55 H19        12.1602   14.4475   39.8462 H           1 MOL       0.2101
     56 H20        13.6991   18.1293   42.1501 H           1 MOL       0.2100
     57 H21        15.2131   14.8087   44.4482 H           1 MOL       0.2095
     58 H22        16.3834   14.8019   40.2967 H           1 MOL       0.0938
     59 H23        16.5426   16.2696   38.3434 H           1 MOL       0.0671
     60 H24        13.4748   16.3498   38.4069 H           1 MOL       0.0648
     61 H25        15.3683   15.2390   36.2672 H           1 MOL       0.0649
     62 H26        13.5312   13.6995   38.1859 H           1 MOL       0.0647
     63 H27        13.9400   12.5183   36.0243 H           1 MOL       0.0584
     64 H28        14.6414   11.6829   37.4156 H           1 MOL       0.0584
     65 H29        16.4898   17.3452   40.2204 H           1 MOL       0.2101
     66 H30        13.6005   17.9189   37.0646 H           1 MOL       0.2100
     67 H31        15.9047   13.1711   35.3953 H           1 MOL       0.2095
     68 H32        12.3547   15.7591   34.2968 H           1 MOL       0.0524
     69 H33        14.0993   15.5113   34.1496 H           1 MOL       0.0524
     70 H34        13.4607   16.9604   34.9584 H           1 MOL       0.0524
@<TRIPOS>BOND
     1     1     2   2
     2     1     4   1
     3     1    11   1
     4     2     3   1
     5     4     5   1
     6     4     6   1
     7     6     7   1
     8     6     8   1
     9     8     9   1
    10     8    10   1
    11     9    14   1
    12    10    11   1
    13    10    12   1
    14    12    13   1
    15    14    15   1
    16    14    23   1
    17    15    16   1
    18    15    20   1
    19    16    17   1
    20    16    21   1
    21    17    18   1
    22    17    22   1
    23    18    19   1
    24    18    23   1
    25    19    24   1
    26    22    25   1
    27    25    26   1
    28    25    34   1
    29    26    27   1
    30    26    31   1
    31    27    28   1
    32    27    32   1
    33    28    29   1
    34    28    33   1
    35    29    30   1
    36    29    34   1
    37    30    35   1
    38    33    36   1
    39     3    37   1
    40     4    38   1
    41     5    39   1
    42     6    40   1
    43     7    41   1
    44     8    42   1
    45    10    43   1
    46    11    44   1
    47    12    45   1
    48    12    46   1
    49    13    47   1
    50    14    48   1
    51    15    49   1
    52    16    50   1
    53    17    51   1
    54    18    52   1
    55    19    53   1
    56    19    54   1
    57    20    55   1
    58    21    56   1
    59    24    57   1
    60    25    58   1
    61    26    59   1
    62    27    60   1
    63    28    61   1
    64    29    62   1
    65    30    63   1
    66    30    64   1
    67    31    65   1
    68    32    66   1
    69    35    67   1
    70    36    68   1
    71    36    69   1
    72    36    70   1
@<TRIPOS>SUBSTRUCTURE
     1  MOL      1

