@<TRIPOS>MOLECULE
1u33_ligand_026
    70    72
SMALL
GAST_HUCK
****
This file was generated by PARSER (from files_GN.cpp)

@<TRIPOS>ATOM
      1 CA1         6.7503   12.4659   38.5107 C.2         1 MOL       0.1322
      2 NA1         6.4274   11.3026   37.9093 N.2         1 MOL      -0.2068
      3 OA7         7.0507   10.8186   36.8715 O.3         1 MOL      -0.3046
      4 CA2         5.9550   12.9016   39.6868 C.3         1 MOL       0.1504
      5 OA2         4.5566   12.8306   39.3980 O.3         1 MOL      -0.3713
      6 CA3         6.3078   14.3387   40.1654 C.3         1 MOL       0.1237
      7 OA3         5.7825   14.5645   41.4704 O.3         1 MOL      -0.3840
      8 CA4         7.8405   14.5507   40.1629 C.3         1 MOL       0.1169
      9 OA4         8.1094   15.8916   40.6211 O.3         1 MOL      -0.3402
     10 CA5         8.3654   14.3436   38.6998 C.3         1 MOL       0.0902
     11 NA5         7.8232   13.1693   38.0721 N.pl3       1 MOL      -0.2990
     12 CA6         9.9159   14.2651   38.6144 C.3         1 MOL       0.0694
     13 OA6        10.3807   14.4023   37.2680 O.3         1 MOL      -0.3927
     14 CB1         9.1127   16.1511   41.6286 C.3         1 MOL       0.1884
     15 CB2         9.6344   17.5887   41.3512 C.3         1 MOL       0.1341
     16 CB3        10.8981   17.9213   42.1994 C.3         1 MOL       0.1144
     17 CB4        11.9734   16.7837   42.1586 C.3         1 MOL       0.1184
     18 CB5        11.3298   15.3939   42.4544 C.3         1 MOL       0.1134
     19 CB6        11.0166   15.0917   43.9585 C.3         1 MOL       0.0730
     20 OB2         9.9521   17.7379   39.9643 O.3         1 MOL      -0.3841
     21 OB3        10.5262   18.2198   43.5464 O.3         1 MOL      -0.3864
     22 OB4        12.5509   16.6999   40.8306 O.3         1 MOL      -0.3401
     23 OB5        10.1879   15.1790   41.5956 O.3         1 MOL      -0.3405
     24 OB6        11.9050   14.0889   44.4716 O.3         1 MOL      -0.3924
     25 CD1        13.5562   17.6703   40.4282 C.3         1 MOL       0.1884
     26 CD2        13.2648   18.1784   38.9890 C.3         1 MOL       0.1341
     27 CD3        13.4386   17.0176   37.9635 C.3         1 MOL       0.1143
     28 CD4        14.8517   16.3833   38.0976 C.3         1 MOL       0.1150
     29 CD5        15.1412   15.9978   39.5801 C.3         1 MOL       0.1133
     30 CD6        16.6142   15.5443   39.7472 C.3         1 MOL       0.0730
     31 OD2        11.9494   18.7332   38.9303 O.3         1 MOL      -0.3841
     32 OD3        13.2215   17.5082   36.6370 O.3         1 MOL      -0.3864
     33 OD4        14.9449   15.2054   37.2688 O.3         1 MOL      -0.3745
     34 OD5        14.8874   17.1033   40.4798 O.3         1 MOL      -0.3405
     35 OD6        17.0212   15.5273   41.1121 O.3         1 MOL      -0.3924
     36 CD7        16.0714   15.1229   36.3803 C.3         1 MOL       0.0370
     37 H1          6.5608    9.9986   36.6467 H           1 MOL       0.2523
     38 H2          6.1619   12.2032   40.5005 H           1 MOL       0.0843
     39 H3          4.4102   13.4463   38.6483 H           1 MOL       0.2137
     40 H4          5.8431   15.0673   39.4948 H           1 MOL       0.0674
     41 H5          4.8152   14.6687   41.3481 H           1 MOL       0.2103
     42 H6          8.2765   13.7930   40.8231 H           1 MOL       0.0650
     43 H7          8.0583   15.1995   38.0885 H           1 MOL       0.0603
     44 H8          8.2699   12.8437   37.2732 H           1 MOL       0.1812
     45 H9         10.2699   13.3077   39.0165 H           1 MOL       0.0581
     46 H10        10.3714   15.0800   39.1908 H           1 MOL       0.0581
     47 H11        11.3385   14.1895   37.3126 H           1 MOL       0.2095
     48 H12         8.6304   16.1177   42.6090 H           1 MOL       0.0938
     49 H13         8.8455   18.3084   41.5911 H           1 MOL       0.0671
     50 H14        11.3472   18.8410   41.8068 H           1 MOL       0.0648
     51 H15        12.7593   16.9731   42.9012 H           1 MOL       0.0651
     52 H16        12.0388   14.6349   42.1331 H           1 MOL       0.0647
     53 H17         9.9867   14.7225   44.0849 H           1 MOL       0.0584
     54 H18        11.1216   15.9860   44.5885 H           1 MOL       0.0584
     55 H19         9.1212   18.0380   39.5310 H           1 MOL       0.2101
     56 H20        10.0986   19.0971   43.4967 H           1 MOL       0.2100
     57 H21        12.2621   14.4635   45.3112 H           1 MOL       0.2095
     58 H22        13.5467   18.5480   41.0856 H           1 MOL       0.0938
     59 H23        13.9777   18.9766   38.7461 H           1 MOL       0.0671
     60 H24        12.6737   16.2531   38.1564 H           1 MOL       0.0648
     61 H25        15.5777   17.1459   37.8019 H           1 MOL       0.0649
     62 H26        14.5066   15.1615   39.8747 H           1 MOL       0.0647
     63 H27        17.2937   16.2139   39.2115 H           1 MOL       0.0584
     64 H28        16.7428   14.5361   39.3440 H           1 MOL       0.0584
     65 H29        11.9186   19.1976   38.0649 H           1 MOL       0.2101
     66 H30        13.8354   18.2678   36.5402 H           1 MOL       0.2100
     67 H31        17.6133   16.3060   41.1844 H           1 MOL       0.2095
     68 H32        15.9848   14.2099   35.7919 H           1 MOL       0.0524
     69 H33        17.0024   15.0770   36.9477 H           1 MOL       0.0524
     70 H34        16.1061   15.9719   35.6975 H           1 MOL       0.0524
@<TRIPOS>BOND
     1     1     2   2
     2     1     4   1
     3     1    11   1
     4     2     3   1
     5     4     5   1
     6     4     6   1
     7     6     7   1
     8     6     8   1
     9     8     9   1
    10     8    10   1
    11     9    14   1
    12    10    11   1
    13    10    12   1
    14    12    13   1
    15    14    15   1
    16    14    23   1
    17    15    16   1
    18    15    20   1
    19    16    17   1
    20    16    21   1
    21    17    18   1
    22    17    22   1
    23    18    19   1
    24    18    23   1
    25    19    24   1
    26    22    25   1
    27    25    26   1
    28    25    34   1
    29    26    27   1
    30    26    31   1
    31    27    28   1
    32    27    32   1
    33    28    29   1
    34    28    33   1
    35    29    30   1
    36    29    34   1
    37    30    35   1
    38    33    36   1
    39     3    37   1
    40     4    38   1
    41     5    39   1
    42     6    40   1
    43     7    41   1
    44     8    42   1
    45    10    43   1
    46    11    44   1
    47    12    45   1
    48    12    46   1
    49    13    47   1
    50    14    48   1
    51    15    49   1
    52    16    50   1
    53    17    51   1
    54    18    52   1
    55    19    53   1
    56    19    54   1
    57    20    55   1
    58    21    56   1
    59    24    57   1
    60    25    58   1
    61    26    59   1
    62    27    60   1
    63    28    61   1
    64    29    62   1
    65    30    63   1
    66    30    64   1
    67    31    65   1
    68    32    66   1
    69    35    67   1
    70    36    68   1
    71    36    69   1
    72    36    70   1
@<TRIPOS>SUBSTRUCTURE
     1  MOL      1

