@<TRIPOS>MOLECULE
1u33_ligand_033
    70    72
SMALL
GAST_HUCK
****
This file was generated by PARSER (from files_GN.cpp)

@<TRIPOS>ATOM
      1 CA1         6.1597   14.6232   41.5604 C.2         1 MOL       0.1322
      2 NA1         5.1020   13.8720   41.1792 N.2         1 MOL      -0.2068
      3 OA7         4.7637   12.7044   41.6714 O.3         1 MOL      -0.3046
      4 CA2         6.3591   15.9443   40.8995 C.3         1 MOL       0.1504
      5 OA2         6.1613   15.8358   39.4727 O.3         1 MOL      -0.3713
      6 CA3         7.7522   16.5497   41.1849 C.3         1 MOL       0.1237
      7 OA3         7.7883   17.9362   40.8142 O.3         1 MOL      -0.3840
      8 CA4         8.1014   16.4343   42.7011 C.3         1 MOL       0.1169
      9 OA4         9.3217   17.1484   42.9750 O.3         1 MOL      -0.3402
     10 CA5         8.0349   14.9499   43.1824 C.3         1 MOL       0.0902
     11 NA5         6.9682   14.2042   42.5714 N.pl3       1 MOL      -0.2990
     12 CA6         7.8877   14.8337   44.7168 C.3         1 MOL       0.0694
     13 OA6         8.7761   15.6995   45.4185 O.3         1 MOL      -0.3927
     14 CB1        10.6022   16.5379   43.1612 C.3         1 MOL       0.1884
     15 CB2        11.6619   17.6295   42.8254 C.3         1 MOL       0.1341
     16 CB3        13.0990   17.0379   42.9142 C.3         1 MOL       0.1144
     17 CB4        13.2456   15.7388   42.0675 C.3         1 MOL       0.1184
     18 CB5        12.1054   14.7210   42.4039 C.3         1 MOL       0.1134
     19 CB6        12.3864   13.8740   43.7067 C.3         1 MOL       0.0730
     20 OB2        11.4188   18.1907   41.5345 O.3         1 MOL      -0.3841
     21 OB3        13.4879   16.7630   44.2685 O.3         1 MOL      -0.3864
     22 OB4        13.1236   16.1075   40.6737 O.3         1 MOL      -0.3401
     23 OB5        10.7898   15.3493   42.3524 O.3         1 MOL      -0.3405
     24 OB6        11.4178   13.9862   44.7586 O.3         1 MOL      -0.3924
     25 CD1        14.1924   15.8427   39.7285 C.3         1 MOL       0.1884
     26 CD2        14.6454   17.1886   39.1154 C.3         1 MOL       0.1341
     27 CD3        13.4999   17.7778   38.2463 C.3         1 MOL       0.1143
     28 CD4        12.9753   16.7458   37.2122 C.3         1 MOL       0.1150
     29 CD5        12.6512   15.3761   37.8920 C.3         1 MOL       0.1133
     30 CD6        12.2902   14.2545   36.8870 C.3         1 MOL       0.0730
     31 OD2        15.0264   18.0870   40.1446 O.3         1 MOL      -0.3841
     32 OD3        13.9595   18.9622   37.5777 O.3         1 MOL      -0.3864
     33 OD4        11.9193   17.2566   36.3574 O.3         1 MOL      -0.3745
     34 OD5        13.7588   14.9264   38.6957 O.3         1 MOL      -0.3405
     35 OD6        12.3319   14.6447   35.4972 O.3         1 MOL      -0.3924
     36 CD7        10.5839   17.3990   36.8880 C.3         1 MOL       0.0370
     37 H1          5.3946   12.4795   42.3977 H           1 MOL       0.2523
     38 H2          5.5898   16.6325   41.2774 H           1 MOL       0.0843
     39 H3          6.8462   15.2035   39.1601 H           1 MOL       0.2137
     40 H4          8.5012   16.0229   40.5759 H           1 MOL       0.0674
     41 H5          7.6624   17.9844   39.8400 H           1 MOL       0.2103
     42 H6          7.3140   16.9908   43.2302 H           1 MOL       0.0650
     43 H7          8.9640   14.4446   42.8912 H           1 MOL       0.0603
     44 H8          6.8154   13.3056   42.9026 H           1 MOL       0.1812
     45 H9          8.1378   13.8120   45.0284 H           1 MOL       0.0581
     46 H10         6.8612   15.0327   45.0356 H           1 MOL       0.0581
     47 H11         8.3899   16.5977   45.3184 H           1 MOL       0.2095
     48 H12        10.6885   16.3126   44.2178 H           1 MOL       0.0938
     49 H13        11.5798   18.4467   43.5495 H           1 MOL       0.0671
     50 H14        13.8120   17.7866   42.5328 H           1 MOL       0.0648
     51 H15        14.2287   15.3020   42.2928 H           1 MOL       0.0651
     52 H16        12.0982   13.9989   41.5901 H           1 MOL       0.0647
     53 H17        13.3804   14.0999   44.1291 H           1 MOL       0.0584
     54 H18        12.4350   12.7962   43.4475 H           1 MOL       0.0584
     55 H19        10.9973   19.0660   41.6956 H           1 MOL       0.2101
     56 H20        12.7174   17.0032   44.8410 H           1 MOL       0.2100
     57 H21        11.8993   14.4824   45.4698 H           1 MOL       0.2095
     58 H22        15.0557   15.3821   40.2245 H           1 MOL       0.0938
     59 H23        15.5007   17.0048   38.4757 H           1 MOL       0.0671
     60 H24        12.6822   18.0927   38.9161 H           1 MOL       0.0648
     61 H25        13.8065   16.5867   36.5280 H           1 MOL       0.0649
     62 H26        11.7984   15.4930   38.5521 H           1 MOL       0.0647
     63 H27        11.2799   13.8341   37.0978 H           1 MOL       0.0584
     64 H28        13.0009   13.4150   36.9895 H           1 MOL       0.0584
     65 H29        15.9380   17.8457   40.3809 H           1 MOL       0.2101
     66 H30        14.0609   18.7114   36.6347 H           1 MOL       0.2100
     67 H31        11.5532   15.2396   35.3839 H           1 MOL       0.2095
     68 H32         9.9624   17.8552   36.1161 H           1 MOL       0.0524
     69 H33        10.5549   18.0460   37.7733 H           1 MOL       0.0524
     70 H34        10.1456   16.4253   37.1333 H           1 MOL       0.0524
@<TRIPOS>BOND
     1     1     2   2
     2     1     4   1
     3     1    11   1
     4     2     3   1
     5     4     5   1
     6     4     6   1
     7     6     7   1
     8     6     8   1
     9     8     9   1
    10     8    10   1
    11     9    14   1
    12    10    11   1
    13    10    12   1
    14    12    13   1
    15    14    15   1
    16    14    23   1
    17    15    16   1
    18    15    20   1
    19    16    17   1
    20    16    21   1
    21    17    18   1
    22    17    22   1
    23    18    19   1
    24    18    23   1
    25    19    24   1
    26    22    25   1
    27    25    26   1
    28    25    34   1
    29    26    27   1
    30    26    31   1
    31    27    28   1
    32    27    32   1
    33    28    29   1
    34    28    33   1
    35    29    30   1
    36    29    34   1
    37    30    35   1
    38    33    36   1
    39     3    37   1
    40     4    38   1
    41     5    39   1
    42     6    40   1
    43     7    41   1
    44     8    42   1
    45    10    43   1
    46    11    44   1
    47    12    45   1
    48    12    46   1
    49    13    47   1
    50    14    48   1
    51    15    49   1
    52    16    50   1
    53    17    51   1
    54    18    52   1
    55    19    53   1
    56    19    54   1
    57    20    55   1
    58    21    56   1
    59    24    57   1
    60    25    58   1
    61    26    59   1
    62    27    60   1
    63    28    61   1
    64    29    62   1
    65    30    63   1
    66    30    64   1
    67    31    65   1
    68    32    66   1
    69    35    67   1
    70    36    68   1
    71    36    69   1
    72    36    70   1
@<TRIPOS>SUBSTRUCTURE
     1  MOL      1

