@<TRIPOS>MOLECULE
1u33_ligand_014
    70    72
SMALL
GAST_HUCK
****
This file was generated by PARSER (from files_GN.cpp)

@<TRIPOS>ATOM
      1 CA1         9.2955   15.2721   42.3111 C.2         1 MOL       0.1322
      2 NA1         8.0188   14.8700   42.4845 N.2         1 MOL      -0.2068
      3 OA7         7.5256   13.7856   41.9562 O.3         1 MOL      -0.3046
      4 CA2         9.7257   16.5562   42.9086 C.3         1 MOL       0.1504
      5 OA2         9.3721   17.5938   41.9987 O.3         1 MOL      -0.3713
      6 CA3        11.2507   16.5692   43.1953 C.3         1 MOL       0.1237
      7 OA3        11.5287   15.6906   44.2837 O.3         1 MOL      -0.3840
      8 CA4        12.0834   16.1168   41.9606 C.3         1 MOL       0.1169
      9 OA4        12.0725   17.1288   40.9273 O.3         1 MOL      -0.3402
     10 CA5        11.5277   14.7959   41.3140 C.3         1 MOL       0.0902
     11 NA5        10.1416   14.5248   41.5630 N.pl3       1 MOL      -0.2990
     12 CA6        12.3877   13.5537   41.6587 C.3         1 MOL       0.0694
     13 OA6        12.4433   13.2786   43.0598 O.3         1 MOL      -0.3927
     14 CB1        13.2763   17.8807   40.6331 C.3         1 MOL       0.1884
     15 CB2        13.1919   18.3785   39.1631 C.3         1 MOL       0.1341
     16 CB3        13.3695   17.1915   38.1635 C.3         1 MOL       0.1144
     17 CB4        14.6493   16.3522   38.4814 C.3         1 MOL       0.1184
     18 CB5        14.6808   15.9839   40.0047 C.3         1 MOL       0.1134
     19 CB6        15.9676   15.2398   40.4697 C.3         1 MOL       0.0730
     20 OB2        11.9343   19.0220   38.9452 O.3         1 MOL      -0.3841
     21 OB3        13.4581   17.6932   36.8241 O.3         1 MOL      -0.3864
     22 OB4        14.8957   15.1193   37.7570 O.3         1 MOL      -0.3401
     23 OB5        14.5206   17.1714   40.8176 O.3         1 MOL      -0.3405
     24 OB6        17.1401   15.5585   39.7176 O.3         1 MOL      -0.3924
     25 CD1        14.0358   14.6045   36.7204 C.3         1 MOL       0.1884
     26 CD2        14.5872   13.2374   36.2442 C.3         1 MOL       0.1341
     27 CD3        15.9670   13.4336   35.5509 C.3         1 MOL       0.1143
     28 CD4        15.8852   14.4938   34.4085 C.3         1 MOL       0.1150
     29 CD5        15.1739   15.7950   34.9119 C.3         1 MOL       0.1133
     30 CD6        14.8442   16.7802   33.7573 C.3         1 MOL       0.0730
     31 OD2        14.6886   12.3486   37.3648 O.3         1 MOL      -0.3841
     32 OD3        16.4338   12.1959   35.0101 O.3         1 MOL      -0.3864
     33 OD4        17.2445   14.7866   33.9979 O.3         1 MOL      -0.3745
     34 OD5        13.9281   15.4980   35.5865 O.3         1 MOL      -0.3405
     35 OD6        13.8754   17.7486   34.1560 O.3         1 MOL      -0.3924
     36 CD7        17.4664   14.9784   32.5868 C.3         1 MOL       0.0370
     37 H1          7.2377   13.2275   42.7122 H           1 MOL       0.2523
     38 H2          9.1885   16.7242   43.8471 H           1 MOL       0.0843
     39 H3          9.4984   18.4355   42.4868 H           1 MOL       0.2137
     40 H4         11.5663   17.5759   43.4896 H           1 MOL       0.0674
     41 H5         11.7887   16.2635   45.0364 H           1 MOL       0.2103
     42 H6         13.1088   15.9532   42.3137 H           1 MOL       0.0650
     43 H7         11.5934   14.8954   40.2255 H           1 MOL       0.0603
     44 H8          9.7709   13.7346   41.1462 H           1 MOL       0.1812
     45 H9         13.4036   13.7127   41.2846 H           1 MOL       0.0581
     46 H10        11.9764   12.6751   41.1557 H           1 MOL       0.0581
     47 H11        13.0230   13.9699   43.4358 H           1 MOL       0.2095
     48 H12        13.2999   18.7498   41.2972 H           1 MOL       0.0938
     49 H13        13.9948   19.1101   38.9900 H           1 MOL       0.0671
     50 H14        12.4858   16.5482   38.2382 H           1 MOL       0.0648
     51 H15        15.5153   16.9936   38.2751 H           1 MOL       0.0651
     52 H16        13.8485   15.2910   40.2010 H           1 MOL       0.0647
     53 H17        15.8112   14.1531   40.3945 H           1 MOL       0.0584
     54 H18        16.1653   15.4702   41.5284 H           1 MOL       0.0584
     55 H19        11.9887   19.4121   38.0450 H           1 MOL       0.2101
     56 H20        12.6741   18.2697   36.7262 H           1 MOL       0.2100
     57 H21        17.4595   16.4060   40.0950 H           1 MOL       0.2095
     58 H22        13.0371   14.4380   37.1232 H           1 MOL       0.0938
     59 H23        13.8790   12.8051   35.5259 H           1 MOL       0.0671
     60 H24        16.6993   13.7680   36.2955 H           1 MOL       0.0648
     61 H25        15.2782   14.0548   33.6029 H           1 MOL       0.0649
     62 H26        15.8406   16.3212   35.6060 H           1 MOL       0.0647
     63 H27        14.4362   16.2337   32.9015 H           1 MOL       0.0584
     64 H28        15.7465   17.3101   33.4361 H           1 MOL       0.0584
     65 H29        14.4435   11.4608   37.0200 H           1 MOL       0.2101
     66 H30        16.6280   11.6332   35.7900 H           1 MOL       0.2100
     67 H31        14.3384   18.3230   34.8015 H           1 MOL       0.2095
     68 H32        18.5286   15.1827   32.4387 H           1 MOL       0.0524
     69 H33        16.8902   15.8273   32.2056 H           1 MOL       0.0524
     70 H34        17.2055   14.0750   32.0245 H           1 MOL       0.0524
@<TRIPOS>BOND
     1     1     2   2
     2     1     4   1
     3     1    11   1
     4     2     3   1
     5     4     5   1
     6     4     6   1
     7     6     7   1
     8     6     8   1
     9     8     9   1
    10     8    10   1
    11     9    14   1
    12    10    11   1
    13    10    12   1
    14    12    13   1
    15    14    15   1
    16    14    23   1
    17    15    16   1
    18    15    20   1
    19    16    17   1
    20    16    21   1
    21    17    18   1
    22    17    22   1
    23    18    19   1
    24    18    23   1
    25    19    24   1
    26    22    25   1
    27    25    26   1
    28    25    34   1
    29    26    27   1
    30    26    31   1
    31    27    28   1
    32    27    32   1
    33    28    29   1
    34    28    33   1
    35    29    30   1
    36    29    34   1
    37    30    35   1
    38    33    36   1
    39     3    37   1
    40     4    38   1
    41     5    39   1
    42     6    40   1
    43     7    41   1
    44     8    42   1
    45    10    43   1
    46    11    44   1
    47    12    45   1
    48    12    46   1
    49    13    47   1
    50    14    48   1
    51    15    49   1
    52    16    50   1
    53    17    51   1
    54    18    52   1
    55    19    53   1
    56    19    54   1
    57    20    55   1
    58    21    56   1
    59    24    57   1
    60    25    58   1
    61    26    59   1
    62    27    60   1
    63    28    61   1
    64    29    62   1
    65    30    63   1
    66    30    64   1
    67    31    65   1
    68    32    66   1
    69    35    67   1
    70    36    68   1
    71    36    69   1
    72    36    70   1
@<TRIPOS>SUBSTRUCTURE
     1  MOL      1

