@<TRIPOS>MOLECULE
1u33_ligand_031
    70    72
SMALL
GAST_HUCK
****
This file was generated by PARSER (from files_GN.cpp)

@<TRIPOS>ATOM
      1 CA1        12.3349   17.7484   42.7175 C.2         1 MOL       0.1322
      2 NA1        13.2767   18.6979   42.5469 N.2         1 MOL      -0.2068
      3 OA7        13.0676   19.9683   42.3487 O.3         1 MOL      -0.3046
      4 CA2        12.7960   16.3408   42.8896 C.3         1 MOL       0.1504
      5 OA2        13.7422   16.0214   41.8639 O.3         1 MOL      -0.3713
      6 CA3        11.6624   15.2573   42.9084 C.3         1 MOL       0.1237
      7 OA3        11.3789   14.8197   44.2397 O.3         1 MOL      -0.3840
      8 CA4        10.3601   15.7513   42.1927 C.3         1 MOL       0.1169
      9 OA4        10.6794   15.7673   40.7746 O.3         1 MOL      -0.3402
     10 CA5         9.9427   17.1413   42.7979 C.3         1 MOL       0.0902
     11 NA5        11.0218   18.0750   42.6687 N.pl3       1 MOL      -0.2990
     12 CA6         9.3235   17.1047   44.2398 C.3         1 MOL       0.0694
     13 OA6         9.8613   18.0994   45.1101 O.3         1 MOL      -0.3927
     14 CB1        10.0978   16.6548   39.7848 C.3         1 MOL       0.1884
     15 CB2         9.5247   15.9380   38.5401 C.3         1 MOL       0.1341
     16 CB3        10.6435   15.1300   37.8363 C.3         1 MOL       0.1144
     17 CB4        11.9393   15.9573   37.5421 C.3         1 MOL       0.1184
     18 CB5        12.3009   16.9673   38.6937 C.3         1 MOL       0.1134
     19 CB6        13.1599   18.2116   38.2968 C.3         1 MOL       0.0730
     20 OB2         8.4352   15.1010   38.9447 O.3         1 MOL      -0.3841
     21 OB3        10.1028   14.6108   36.6169 O.3         1 MOL      -0.3864
     22 OB4        12.9033   14.8941   37.3574 O.3         1 MOL      -0.3401
     23 OB5        11.1400   17.5389   39.3486 O.3         1 MOL      -0.3405
     24 OB6        13.9354   18.1021   37.1073 O.3         1 MOL      -0.3924
     25 CD1        14.1133   15.0558   36.5961 C.3         1 MOL       0.1884
     26 CD2        14.7049   13.6574   36.2650 C.3         1 MOL       0.1341
     27 CD3        15.2826   12.9660   37.5364 C.3         1 MOL       0.1143
     28 CD4        16.2732   13.9094   38.2754 C.3         1 MOL       0.1150
     29 CD5        15.5751   15.2792   38.5610 C.3         1 MOL       0.1133
     30 CD6        16.4755   16.3299   39.2783 C.3         1 MOL       0.0730
     31 OD2        13.7180   12.8224   35.6626 O.3         1 MOL      -0.3841
     32 OD3        15.9644   11.7524   37.1994 O.3         1 MOL      -0.3864
     33 OD4        16.8726   13.2475   39.4080 O.3         1 MOL      -0.3745
     34 OD5        15.0996   15.8499   37.3061 O.3         1 MOL      -0.3405
     35 OD6        15.7124   17.0568   40.2489 O.3         1 MOL      -0.3924
     36 CD7        16.4825   13.6182   40.7486 C.3         1 MOL       0.0370
     37 H1         12.6280   20.3237   43.1466 H           1 MOL       0.2523
     38 H2         13.3515   16.2855   43.8293 H           1 MOL       0.0843
     39 H3         13.2364   15.5055   41.1972 H           1 MOL       0.2137
     40 H4         12.0042   14.3554   42.3842 H           1 MOL       0.0674
     41 H5         12.1073   15.1542   44.8089 H           1 MOL       0.2103
     42 H6          9.5421   15.0363   42.3433 H           1 MOL       0.0650
     43 H7          9.1537   17.5730   42.1685 H           1 MOL       0.0603
     44 H8         10.7822   19.0015   42.5001 H           1 MOL       0.1812
     45 H9          9.4516   16.1242   44.7103 H           1 MOL       0.0581
     46 H10         8.2464   17.2744   44.1684 H           1 MOL       0.0581
     47 H11        10.6784   17.7066   45.4749 H           1 MOL       0.2095
     48 H12         9.2943   17.2742   40.1865 H           1 MOL       0.0938
     49 H13         9.1365   16.7011   37.8556 H           1 MOL       0.0671
     50 H14        10.8706   14.2790   38.4867 H           1 MOL       0.0648
     51 H15        11.7731   16.5080   36.6131 H           1 MOL       0.0651
     52 H16        12.8655   16.3997   39.4386 H           1 MOL       0.0647
     53 H17        13.8465   18.4451   39.1153 H           1 MOL       0.0584
     54 H18        12.5196   19.0860   38.1631 H           1 MOL       0.0584
     55 H19         8.0435   14.7832   38.1058 H           1 MOL       0.2101
     56 H20        10.8278   14.0858   36.2222 H           1 MOL       0.2100
     57 H21        13.2829   18.1151   36.3731 H           1 MOL       0.2095
     58 H22        13.8996   15.5508   35.6542 H           1 MOL       0.0938
     59 H23        15.5179   13.7778   35.5426 H           1 MOL       0.0671
     60 H24        14.4588   12.7150   38.2158 H           1 MOL       0.0648
     61 H25        17.1070   14.1118   37.5931 H           1 MOL       0.0649
     62 H26        14.7069   15.0960   39.2180 H           1 MOL       0.0647
     63 H27        16.8921   17.0392   38.5456 H           1 MOL       0.0584
     64 H28        17.3193   15.8514   39.7905 H           1 MOL       0.0584
     65 H29        12.8914   13.0032   36.1562 H           1 MOL       0.2101
     66 H30        15.2506   11.1010   37.0222 H           1 MOL       0.2100
     67 H31        16.3678   17.6457   40.6680 H           1 MOL       0.2095
     68 H32        16.8131   12.8238   41.4285 H           1 MOL       0.0524
     69 H33        15.3949   13.7417   40.8482 H           1 MOL       0.0524
     70 H34        16.9867   14.5456   41.0526 H           1 MOL       0.0524
@<TRIPOS>BOND
     1     1     2   2
     2     1     4   1
     3     1    11   1
     4     2     3   1
     5     4     5   1
     6     4     6   1
     7     6     7   1
     8     6     8   1
     9     8     9   1
    10     8    10   1
    11     9    14   1
    12    10    11   1
    13    10    12   1
    14    12    13   1
    15    14    15   1
    16    14    23   1
    17    15    16   1
    18    15    20   1
    19    16    17   1
    20    16    21   1
    21    17    18   1
    22    17    22   1
    23    18    19   1
    24    18    23   1
    25    19    24   1
    26    22    25   1
    27    25    26   1
    28    25    34   1
    29    26    27   1
    30    26    31   1
    31    27    28   1
    32    27    32   1
    33    28    29   1
    34    28    33   1
    35    29    30   1
    36    29    34   1
    37    30    35   1
    38    33    36   1
    39     3    37   1
    40     4    38   1
    41     5    39   1
    42     6    40   1
    43     7    41   1
    44     8    42   1
    45    10    43   1
    46    11    44   1
    47    12    45   1
    48    12    46   1
    49    13    47   1
    50    14    48   1
    51    15    49   1
    52    16    50   1
    53    17    51   1
    54    18    52   1
    55    19    53   1
    56    19    54   1
    57    20    55   1
    58    21    56   1
    59    24    57   1
    60    25    58   1
    61    26    59   1
    62    27    60   1
    63    28    61   1
    64    29    62   1
    65    30    63   1
    66    30    64   1
    67    31    65   1
    68    32    66   1
    69    35    67   1
    70    36    68   1
    71    36    69   1
    72    36    70   1
@<TRIPOS>SUBSTRUCTURE
     1  MOL      1

