@<TRIPOS>MOLECULE
1u33_ligand_087
    70    72
SMALL
GAST_HUCK
****
This file was generated by PARSER (from files_GN.cpp)

@<TRIPOS>ATOM
      1 CA1        10.8495   16.3339   37.6201 C.2         1 MOL       0.1322
      2 NA1         9.7438   16.4042   36.8451 N.2         1 MOL      -0.2068
      3 OA7         9.2867   17.4887   36.2802 O.3         1 MOL      -0.3046
      4 CA2        11.2180   15.0095   38.1764 C.3         1 MOL       0.1504
      5 OA2        10.3037   14.7186   39.2304 O.3         1 MOL      -0.3713
      6 CA3        12.6893   14.9374   38.6779 C.3         1 MOL       0.1237
      7 OA3        13.5607   14.6513   37.5877 O.3         1 MOL      -0.3840
      8 CA4        13.1233   16.2305   39.4294 C.3         1 MOL       0.1169
      9 OA4        12.4072   16.2207   40.6868 O.3         1 MOL      -0.3402
     10 CA5        12.7834   17.5332   38.6288 C.3         1 MOL       0.0902
     11 NA5        11.5730   17.4560   37.8604 N.pl3       1 MOL      -0.2990
     12 CA6        13.9224   18.0323   37.6960 C.3         1 MOL       0.0694
     13 OA6        13.6894   17.7346   36.3222 O.3         1 MOL      -0.3927
     14 CB1        13.0906   16.5686   41.9210 C.3         1 MOL       0.1884
     15 CB2        13.2262   15.3176   42.8232 C.3         1 MOL       0.1341
     16 CB3        11.8190   14.7750   43.1833 C.3         1 MOL       0.1144
     17 CB4        10.8933   15.8704   43.8219 C.3         1 MOL       0.1184
     18 CB5        11.0142   17.2174   43.0286 C.3         1 MOL       0.1134
     19 CB6        10.4626   18.4335   43.8148 C.3         1 MOL       0.0730
     20 OB2        13.9970   14.3230   42.1516 O.3         1 MOL      -0.3841
     21 OB3        11.9866   13.6840   44.0937 O.3         1 MOL      -0.3864
     22 OB4         9.4637   15.6413   43.9183 O.3         1 MOL      -0.3401
     23 OB5        12.3666   17.5764   42.6567 O.3         1 MOL      -0.3405
     24 OB6        10.9880   18.5343   45.1365 O.3         1 MOL      -0.3924
     25 CD1         8.8287   14.3444   43.9939 C.3         1 MOL       0.1884
     26 CD2         8.3068   13.9038   42.5934 C.3         1 MOL       0.1341
     27 CD3         7.0302   14.6816   42.1855 C.3         1 MOL       0.1143
     28 CD4         5.9575   14.6127   43.3054 C.3         1 MOL       0.1150
     29 CD5         6.5649   15.0970   44.6617 C.3         1 MOL       0.1133
     30 CD6         5.5408   14.9376   45.8354 C.3         1 MOL       0.0730
     31 OD2         9.3075   14.1183   41.6024 O.3         1 MOL      -0.3841
     32 OD3         6.5182   14.1444   40.9646 O.3         1 MOL      -0.3864
     33 OD4         4.8408   15.4624   42.9466 O.3         1 MOL      -0.3745
     34 OD5         7.7681   14.3520   44.9709 O.3         1 MOL      -0.3405
     35 OD6         5.9938   14.0645   46.8792 O.3         1 MOL      -0.3924
     36 CD7         3.6038   14.7934   42.6575 C.3         1 MOL       0.0370
     37 H1          8.7920   17.9657   36.9783 H           1 MOL       0.2523
     38 H2         11.0790   14.2439   37.4065 H           1 MOL       0.0843
     39 H3         10.4476   13.7686   39.4363 H           1 MOL       0.2137
     40 H4         12.7893   14.0854   39.3599 H           1 MOL       0.0674
     41 H5         13.4491   15.3918   36.9588 H           1 MOL       0.2103
     42 H6         14.1980   16.1491   39.6134 H           1 MOL       0.0650
     43 H7         12.6214   18.3243   39.3680 H           1 MOL       0.0603
     44 H8         11.2798   18.2720   37.4172 H           1 MOL       0.1812
     45 H9         14.8655   17.5776   37.9933 H           1 MOL       0.0581
     46 H10        14.0257   19.1150   37.7870 H           1 MOL       0.0581
     47 H11        14.4249   18.1610   35.8309 H           1 MOL       0.2095
     48 H12        14.0896   16.9778   41.7461 H           1 MOL       0.0938
     49 H13        13.7366   15.5947   43.7500 H           1 MOL       0.0671
     50 H14        11.3551   14.3879   42.2773 H           1 MOL       0.0648
     51 H15        11.2475   16.0222   44.8416 H           1 MOL       0.0651
     52 H16        10.4223   17.1397   42.1084 H           1 MOL       0.0647
     53 H17         9.3739   18.3808   43.8880 H           1 MOL       0.0584
     54 H18        10.7266   19.3461   43.2816 H           1 MOL       0.0584
     55 H19        14.8947   14.3755   42.5486 H           1 MOL       0.2101
     56 H20        12.5376   13.0283   43.5947 H           1 MOL       0.2100
     57 H21        11.8460   18.0515   45.1213 H           1 MOL       0.2095
     58 H22         9.5170   13.5874   44.3552 H           1 MOL       0.0938
     59 H23         8.0782   12.8355   42.6265 H           1 MOL       0.0671
     60 H24         7.2932   15.7331   42.0055 H           1 MOL       0.0648
     61 H25         5.6614   13.5570   43.4357 H           1 MOL       0.0649
     62 H26         6.8251   16.1602   44.5728 H           1 MOL       0.0647
     63 H27         4.5799   14.5320   45.4864 H           1 MOL       0.0584
     64 H28         5.3305   15.9090   46.2936 H           1 MOL       0.0584
     65 H29         8.9215   13.8143   40.7464 H           1 MOL       0.2101
     66 H30         6.3310   13.2027   41.1621 H           1 MOL       0.2100
     67 H31         6.7060   13.5258   46.4619 H           1 MOL       0.2095
     68 H32         2.8887   15.5381   42.3160 H           1 MOL       0.0524
     69 H33         3.2070   14.3210   43.5586 H           1 MOL       0.0524
     70 H34         3.7206   14.0434   41.8729 H           1 MOL       0.0524
@<TRIPOS>BOND
     1     1     2   2
     2     1     4   1
     3     1    11   1
     4     2     3   1
     5     4     5   1
     6     4     6   1
     7     6     7   1
     8     6     8   1
     9     8     9   1
    10     8    10   1
    11     9    14   1
    12    10    11   1
    13    10    12   1
    14    12    13   1
    15    14    15   1
    16    14    23   1
    17    15    16   1
    18    15    20   1
    19    16    17   1
    20    16    21   1
    21    17    18   1
    22    17    22   1
    23    18    19   1
    24    18    23   1
    25    19    24   1
    26    22    25   1
    27    25    26   1
    28    25    34   1
    29    26    27   1
    30    26    31   1
    31    27    28   1
    32    27    32   1
    33    28    29   1
    34    28    33   1
    35    29    30   1
    36    29    34   1
    37    30    35   1
    38    33    36   1
    39     3    37   1
    40     4    38   1
    41     5    39   1
    42     6    40   1
    43     7    41   1
    44     8    42   1
    45    10    43   1
    46    11    44   1
    47    12    45   1
    48    12    46   1
    49    13    47   1
    50    14    48   1
    51    15    49   1
    52    16    50   1
    53    17    51   1
    54    18    52   1
    55    19    53   1
    56    19    54   1
    57    20    55   1
    58    21    56   1
    59    24    57   1
    60    25    58   1
    61    26    59   1
    62    27    60   1
    63    28    61   1
    64    29    62   1
    65    30    63   1
    66    30    64   1
    67    31    65   1
    68    32    66   1
    69    35    67   1
    70    36    68   1
    71    36    69   1
    72    36    70   1
@<TRIPOS>SUBSTRUCTURE
     1  MOL      1

