@<TRIPOS>MOLECULE
1u33_ligand_084
    70    72
SMALL
GAST_HUCK
****
This file was generated by PARSER (from files_GN.cpp)

@<TRIPOS>ATOM
      1 CA1        12.4664   15.1276   42.9987 C.2         1 MOL       0.1322
      2 NA1        13.7058   14.7439   43.3766 N.2         1 MOL      -0.2068
      3 OA7        14.5015   15.4351   44.1423 O.3         1 MOL      -0.3046
      4 CA2        11.7188   14.2140   42.1025 C.3         1 MOL       0.1504
      5 OA2        12.3426   14.1573   40.8199 O.3         1 MOL      -0.3713
      6 CA3        10.2216   14.6183   41.9423 C.3         1 MOL       0.1237
      7 OA3         9.4838   14.1267   43.0572 O.3         1 MOL      -0.3840
      8 CA4        10.0643   16.1598   41.7738 C.3         1 MOL       0.1169
      9 OA4        10.6133   16.4114   40.4666 O.3         1 MOL      -0.3402
     10 CA5        10.7601   16.9324   42.9505 C.3         1 MOL       0.0902
     11 NA5        11.9695   16.3145   43.4209 N.pl3       1 MOL      -0.2990
     12 CA6         9.8104   17.3006   44.1259 C.3         1 MOL       0.0694
     13 OA6         8.9632   16.2460   44.5535 O.3         1 MOL      -0.3927
     14 CB1        10.7954   17.7401   39.9440 C.3         1 MOL       0.1884
     15 CB2        10.7127   17.6740   38.4021 C.3         1 MOL       0.1341
     16 CB3        11.9220   16.8837   37.8282 C.3         1 MOL       0.1144
     17 CB4        13.2868   17.3954   38.3796 C.3         1 MOL       0.1184
     18 CB5        13.2327   17.5170   39.9380 C.3         1 MOL       0.1134
     19 CB6        14.4790   18.1760   40.5719 C.3         1 MOL       0.0730
     20 OB2         9.5001   17.0475   37.9839 O.3         1 MOL      -0.3841
     21 OB3        11.8942   16.9821   36.4079 O.3         1 MOL      -0.3864
     22 OB4        14.4346   16.6698   37.8627 O.3         1 MOL      -0.3401
     23 OB5        12.0788   18.2848   40.3342 O.3         1 MOL      -0.3405
     24 OB6        15.6190   17.3364   40.4393 O.3         1 MOL      -0.3924
     25 CD1        14.6026   15.2458   38.0713 C.3         1 MOL       0.1884
     26 CD2        16.0783   14.8258   37.8225 C.3         1 MOL       0.1341
     27 CD3        16.4433   14.9252   36.3140 C.3         1 MOL       0.1143
     28 CD4        15.4327   14.1548   35.4168 C.3         1 MOL       0.1150
     29 CD5        13.9702   14.5400   35.8095 C.3         1 MOL       0.1133
     30 CD6        12.9132   13.6405   35.1238 C.3         1 MOL       0.0730
     31 OD2        16.9833   15.6073   38.5950 O.3         1 MOL      -0.3841
     32 OD3        17.7685   14.4191   36.1414 O.3         1 MOL      -0.3864
     33 OD4        15.5804   14.4767   34.0145 O.3         1 MOL      -0.3745
     34 OD5        13.7518   14.4422   37.2350 O.3         1 MOL      -0.3405
     35 OD6        11.5924   13.9867   35.5337 O.3         1 MOL      -0.3924
     36 CD7        16.6689   13.8881   33.2852 C.3         1 MOL       0.0370
     37 H1         15.2439   14.8203   44.3255 H           1 MOL       0.2523
     38 H2         11.7711   13.2056   42.5160 H           1 MOL       0.0843
     39 H3         13.2692   13.8793   40.9839 H           1 MOL       0.2137
     40 H4          9.8156   14.1080   41.0645 H           1 MOL       0.0674
     41 H5          8.5446   14.3218   42.8565 H           1 MOL       0.2103
     42 H6          8.9970   16.4101   41.7309 H           1 MOL       0.0650
     43 H7         11.0833   17.9029   42.5781 H           1 MOL       0.0603
     44 H8         12.5089   16.8318   44.0407 H           1 MOL       0.1812
     45 H9          9.1707   18.1311   43.8184 H           1 MOL       0.0581
     46 H10        10.3885   17.6316   44.9874 H           1 MOL       0.0581
     47 H11         8.3126   16.6817   45.1402 H           1 MOL       0.2095
     48 H12        10.0078   18.4068   40.3052 H           1 MOL       0.0938
     49 H13        10.7226   18.6944   38.0077 H           1 MOL       0.0671
     50 H14        11.7912   15.8310   38.0960 H           1 MOL       0.0648
     51 H15        13.4108   18.4126   37.9967 H           1 MOL       0.0651
     52 H16        13.1574   16.5250   40.3787 H           1 MOL       0.0647
     53 H17        14.3004   18.3404   41.6377 H           1 MOL       0.0584
     54 H18        14.6796   19.1373   40.0992 H           1 MOL       0.0584
     55 H19         8.7817   17.6159   38.3264 H           1 MOL       0.2101
     56 H20        11.8988   17.9458   36.2347 H           1 MOL       0.2100
     57 H21        16.3835   17.8465   40.7810 H           1 MOL       0.2095
     58 H22        14.3710   14.9944   39.1053 H           1 MOL       0.0938
     59 H23        16.1936   13.7858   38.1415 H           1 MOL       0.0671
     60 H24        16.4483   15.9783   36.0199 H           1 MOL       0.0648
     61 H25        15.5564   13.0812   35.5830 H           1 MOL       0.0649
     62 H26        13.7934   15.5675   35.4859 H           1 MOL       0.0647
     63 H27        13.0815   12.5933   35.3839 H           1 MOL       0.0584
     64 H28        12.9715   13.7435   34.0378 H           1 MOL       0.0584
     65 H29        16.7471   16.5435   38.4147 H           1 MOL       0.2101
     66 H30        17.7232   13.4690   36.3820 H           1 MOL       0.2100
     67 H31        11.4657   14.9124   35.2369 H           1 MOL       0.2095
     68 H32        16.5116   14.0970   32.2261 H           1 MOL       0.0524
     69 H33        16.6970   12.8057   33.4195 H           1 MOL       0.0524
     70 H34        17.6236   14.3240   33.5754 H           1 MOL       0.0524
@<TRIPOS>BOND
     1     1     2   2
     2     1     4   1
     3     1    11   1
     4     2     3   1
     5     4     5   1
     6     4     6   1
     7     6     7   1
     8     6     8   1
     9     8     9   1
    10     8    10   1
    11     9    14   1
    12    10    11   1
    13    10    12   1
    14    12    13   1
    15    14    15   1
    16    14    23   1
    17    15    16   1
    18    15    20   1
    19    16    17   1
    20    16    21   1
    21    17    18   1
    22    17    22   1
    23    18    19   1
    24    18    23   1
    25    19    24   1
    26    22    25   1
    27    25    26   1
    28    25    34   1
    29    26    27   1
    30    26    31   1
    31    27    28   1
    32    27    32   1
    33    28    29   1
    34    28    33   1
    35    29    30   1
    36    29    34   1
    37    30    35   1
    38    33    36   1
    39     3    37   1
    40     4    38   1
    41     5    39   1
    42     6    40   1
    43     7    41   1
    44     8    42   1
    45    10    43   1
    46    11    44   1
    47    12    45   1
    48    12    46   1
    49    13    47   1
    50    14    48   1
    51    15    49   1
    52    16    50   1
    53    17    51   1
    54    18    52   1
    55    19    53   1
    56    19    54   1
    57    20    55   1
    58    21    56   1
    59    24    57   1
    60    25    58   1
    61    26    59   1
    62    27    60   1
    63    28    61   1
    64    29    62   1
    65    30    63   1
    66    30    64   1
    67    31    65   1
    68    32    66   1
    69    35    67   1
    70    36    68   1
    71    36    69   1
    72    36    70   1
@<TRIPOS>SUBSTRUCTURE
     1  MOL      1

