@<TRIPOS>MOLECULE
1u33_ligand_067
    70    72
SMALL
GAST_HUCK
****
This file was generated by PARSER (from files_GN.cpp)

@<TRIPOS>ATOM
      1 CA1        16.1212   11.1746   34.6954 C.2         1 MOL       0.1322
      2 NA1        16.3617   10.2476   33.7432 N.2         1 MOL      -0.2068
      3 OA7        17.5068    9.6420   33.5896 O.3         1 MOL      -0.3046
      4 CA2        14.7632   11.7648   34.7915 C.3         1 MOL       0.1504
      5 OA2        14.2709   12.1072   33.4907 O.3         1 MOL      -0.3713
      6 CA3        14.7217   13.0392   35.6851 C.3         1 MOL       0.1237
      7 OA3        13.3602   13.3778   35.9602 O.3         1 MOL      -0.3840
      8 CA4        15.4937   12.8016   37.0162 C.3         1 MOL       0.1169
      9 OA4        15.4618   13.8976   37.9617 O.3         1 MOL      -0.3402
     10 CA5        16.9613   12.3300   36.7327 C.3         1 MOL       0.0902
     11 NA5        17.0989   11.4864   35.5805 N.pl3       1 MOL      -0.2990
     12 CA6        17.5897   11.5716   37.9487 C.3         1 MOL       0.0694
     13 OA6        17.3657   12.2088   39.2079 O.3         1 MOL      -0.3927
     14 CB1        15.6956   15.2660   37.5557 C.3         1 MOL       0.1884
     15 CB2        16.1558   16.1330   38.7512 C.3         1 MOL       0.1341
     16 CB3        15.0689   16.1726   39.8620 C.3         1 MOL       0.1144
     17 CB4        13.6485   16.5277   39.3095 C.3         1 MOL       0.1184
     18 CB5        13.3631   15.8812   37.9079 C.3         1 MOL       0.1134
     19 CB6        12.2230   16.6005   37.1432 C.3         1 MOL       0.0730
     20 OB2        17.3831   15.6307   39.2788 O.3         1 MOL      -0.3841
     21 OB3        15.4458   17.1485   40.8380 O.3         1 MOL      -0.3864
     22 OB4        12.5573   16.0806   40.1470 O.3         1 MOL      -0.3401
     23 OB5        14.5080   15.8741   37.0182 O.3         1 MOL      -0.3405
     24 OB6        10.9516   16.4302   37.7717 O.3         1 MOL      -0.3924
     25 CD1        12.5359   16.2503   41.5792 C.3         1 MOL       0.1884
     26 CD2        12.7177   14.8480   42.2293 C.3         1 MOL       0.1341
     27 CD3        12.4689   14.9172   43.7611 C.3         1 MOL       0.1143
     28 CD4        11.1269   15.6374   44.1139 C.3         1 MOL       0.1150
     29 CD5        10.9613   16.9813   43.3184 C.3         1 MOL       0.1133
     30 CD6        11.7340   18.1923   43.9238 C.3         1 MOL       0.0730
     31 OD2        11.8257   13.8912   41.6411 O.3         1 MOL      -0.3841
     32 OD3        13.5870   15.5446   44.3891 O.3         1 MOL      -0.3864
     33 OD4        10.0493   14.7199   43.8003 O.3         1 MOL      -0.3745
     34 OD5        11.2365   16.7892   41.9099 O.3         1 MOL      -0.3405
     35 OD6        10.8599   19.0851   44.6178 O.3         1 MOL      -0.3924
     36 CD7         8.7481   15.0279   44.3359 C.3         1 MOL       0.0370
     37 H1         17.3312    8.9690   32.8990 H           1 MOL       0.2523
     38 H2         14.0972   11.0032   35.2124 H           1 MOL       0.0843
     39 H3         14.0706   11.2457   33.0511 H           1 MOL       0.2137
     40 H4         15.1787   13.8707   35.1378 H           1 MOL       0.0674
     41 H5         12.9921   13.6788   35.1015 H           1 MOL       0.2103
     42 H6         14.9771   11.9763   37.5174 H           1 MOL       0.0650
     43 H7         17.5842   13.2116   36.5439 H           1 MOL       0.0603
     44 H8         17.9736   11.0884   35.4352 H           1 MOL       0.1812
     45 H9         18.6707   11.4926   37.7973 H           1 MOL       0.0581
     46 H10        17.1768   10.5630   38.0162 H           1 MOL       0.0581
     47 H11        17.1243   13.1392   38.9884 H           1 MOL       0.2095
     48 H12        16.4760   15.3190   36.7933 H           1 MOL       0.0938
     49 H13        16.3418   17.1480   38.3813 H           1 MOL       0.0671
     50 H14        15.0443   15.1918   40.3382 H           1 MOL       0.0648
     51 H15        13.5924   17.6185   39.2076 H           1 MOL       0.0651
     52 H16        13.0484   14.8396   38.0557 H           1 MOL       0.0647
     53 H17        12.1556   16.2075   36.1247 H           1 MOL       0.0584
     54 H18        12.4322   17.6720   37.0723 H           1 MOL       0.0584
     55 H19        17.6966   16.3192   39.9043 H           1 MOL       0.2101
     56 H20        16.3397   17.4858   40.5924 H           1 MOL       0.2100
     57 H21        10.7518   15.4699   37.6743 H           1 MOL       0.2095
     58 H22        13.3018   16.9469   41.9319 H           1 MOL       0.0938
     59 H23        13.7412   14.4936   42.0548 H           1 MOL       0.0671
     60 H24        12.4211   13.8968   44.1621 H           1 MOL       0.0648
     61 H25        11.1344   15.8388   45.1926 H           1 MOL       0.0649
     62 H26         9.9093   17.2661   43.3400 H           1 MOL       0.0647
     63 H27        12.2310   18.7591   43.1292 H           1 MOL       0.0584
     64 H28        12.4993   17.8590   44.6265 H           1 MOL       0.0584
     65 H29        12.2400   13.6325   40.7913 H           1 MOL       0.2101
     66 H30        14.2462   14.8334   44.4976 H           1 MOL       0.2100
     67 H31        10.3304   19.4933   43.9070 H           1 MOL       0.2095
     68 H32         8.0776   14.2045   44.0863 H           1 MOL       0.0524
     69 H33         8.3428   15.9502   43.9104 H           1 MOL       0.0524
     70 H34         8.7808   15.1111   45.4227 H           1 MOL       0.0524
@<TRIPOS>BOND
     1     1     2   2
     2     1     4   1
     3     1    11   1
     4     2     3   1
     5     4     5   1
     6     4     6   1
     7     6     7   1
     8     6     8   1
     9     8     9   1
    10     8    10   1
    11     9    14   1
    12    10    11   1
    13    10    12   1
    14    12    13   1
    15    14    15   1
    16    14    23   1
    17    15    16   1
    18    15    20   1
    19    16    17   1
    20    16    21   1
    21    17    18   1
    22    17    22   1
    23    18    19   1
    24    18    23   1
    25    19    24   1
    26    22    25   1
    27    25    26   1
    28    25    34   1
    29    26    27   1
    30    26    31   1
    31    27    28   1
    32    27    32   1
    33    28    29   1
    34    28    33   1
    35    29    30   1
    36    29    34   1
    37    30    35   1
    38    33    36   1
    39     3    37   1
    40     4    38   1
    41     5    39   1
    42     6    40   1
    43     7    41   1
    44     8    42   1
    45    10    43   1
    46    11    44   1
    47    12    45   1
    48    12    46   1
    49    13    47   1
    50    14    48   1
    51    15    49   1
    52    16    50   1
    53    17    51   1
    54    18    52   1
    55    19    53   1
    56    19    54   1
    57    20    55   1
    58    21    56   1
    59    24    57   1
    60    25    58   1
    61    26    59   1
    62    27    60   1
    63    28    61   1
    64    29    62   1
    65    30    63   1
    66    30    64   1
    67    31    65   1
    68    32    66   1
    69    35    67   1
    70    36    68   1
    71    36    69   1
    72    36    70   1
@<TRIPOS>SUBSTRUCTURE
     1  MOL      1

