@<TRIPOS>MOLECULE
1u33_ligand_025
    70    72
SMALL
GAST_HUCK
****
This file was generated by PARSER (from files_GN.cpp)

@<TRIPOS>ATOM
      1 CA1        15.2813   15.0168   40.4835 C.2         1 MOL       0.1322
      2 NA1        16.6032   15.1427   40.2731 N.2         1 MOL      -0.2068
      3 OA7        17.4729   15.3043   41.2224 O.3         1 MOL      -0.3046
      4 CA2        14.3932   14.8545   39.3053 C.3         1 MOL       0.1504
      5 OA2        14.7352   15.7908   38.2832 O.3         1 MOL      -0.3713
      6 CA3        12.8772   14.9958   39.6389 C.3         1 MOL       0.1237
      7 OA3        12.0931   14.4062   38.6017 O.3         1 MOL      -0.3840
      8 CA4        12.5291   14.3704   41.0206 C.3         1 MOL       0.1169
      9 OA4        11.1183   14.3364   41.3343 O.3         1 MOL      -0.3402
     10 CA5        13.4275   15.0276   42.1168 C.3         1 MOL       0.0902
     11 NA5        14.8115   14.9925   41.7522 N.pl3       1 MOL      -0.2990
     12 CA6        13.2591   14.4018   43.5283 C.3         1 MOL       0.0694
     13 OA6        12.0511   14.8108   44.1625 O.3         1 MOL      -0.3927
     14 CB1        10.3313   15.5467   41.3853 C.3         1 MOL       0.1884
     15 CB2         9.0865   15.2547   42.2652 C.3         1 MOL       0.1341
     16 CB3         8.1152   16.4743   42.2837 C.3         1 MOL       0.1144
     17 CB4         7.8484   17.1385   40.8861 C.3         1 MOL       0.1184
     18 CB5         9.1080   17.1288   39.9450 C.3         1 MOL       0.1134
     19 CB6        10.0154   18.3907   40.0559 C.3         1 MOL       0.0730
     20 OB2         8.4381   14.0561   41.8374 O.3         1 MOL      -0.3841
     21 OB3         8.7091   17.4351   43.1744 O.3         1 MOL      -0.3864
     22 OB4         6.6122   16.7272   40.2361 O.3         1 MOL      -0.3401
     23 OB5         9.8839   15.9128   40.0563 O.3         1 MOL      -0.3405
     24 OB6        11.0811   18.3269   39.1105 O.3         1 MOL      -0.3924
     25 CD1         6.4296   15.4481   39.5973 C.3         1 MOL       0.1884
     26 CD2         5.3126   15.5238   38.5175 C.3         1 MOL       0.1341
     27 CD3         3.8925   15.5630   39.1503 C.3         1 MOL       0.1143
     28 CD4         3.7040   14.4090   40.1790 C.3         1 MOL       0.1150
     29 CD5         4.8596   14.4657   41.2253 C.3         1 MOL       0.1133
     30 CD6         4.8719   13.2799   42.2226 C.3         1 MOL       0.0730
     31 OD2         5.5208   16.6358   37.6431 O.3         1 MOL      -0.3841
     32 OD3         2.8993   15.4954   38.1217 O.3         1 MOL      -0.3864
     33 OD4         2.4260   14.5690   40.8433 O.3         1 MOL      -0.3745
     34 OD5         6.1287   14.4097   40.5440 O.3         1 MOL      -0.3405
     35 OD6         3.5675   12.8298   42.5916 O.3         1 MOL      -0.3924
     36 CD7         1.3767   13.6619   40.4332 C.3         1 MOL       0.0370
     37 H1         17.8587   16.1927   41.0555 H           1 MOL       0.2523
     38 H2         14.5722   13.8543   38.9009 H           1 MOL       0.0843
     39 H3         14.6427   16.6773   38.6956 H           1 MOL       0.2137
     40 H4         12.6253   16.0595   39.6673 H           1 MOL       0.0674
     41 H5         12.3280   13.4550   38.6064 H           1 MOL       0.2103
     42 H6         12.8043   13.3139   40.9580 H           1 MOL       0.0650
     43 H7         13.1693   16.0831   42.2055 H           1 MOL       0.0603
     44 H8         15.4615   15.0132   42.4696 H           1 MOL       0.1812
     45 H9         14.0818   14.7228   44.1728 H           1 MOL       0.0581
     46 H10        13.2734   13.3110   43.4722 H           1 MOL       0.0581
     47 H11        12.2821   14.9064   45.1175 H           1 MOL       0.2095
     48 H12        10.9063   16.3580   41.8496 H           1 MOL       0.0938
     49 H13         9.4138   15.0661   43.2953 H           1 MOL       0.0671
     50 H14         7.1598   16.1632   42.7260 H           1 MOL       0.0648
     51 H15         7.6224   18.1899   41.0998 H           1 MOL       0.0651
     52 H16         8.7460   17.1313   38.9138 H           1 MOL       0.0647
     53 H17        10.4347   18.4789   41.0602 H           1 MOL       0.0584
     54 H18         9.4272   19.2872   39.8479 H           1 MOL       0.0584
     55 H19         8.3637   14.1545   40.8682 H           1 MOL       0.2101
     56 H20         8.0015   17.7261   43.7978 H           1 MOL       0.2100
     57 H21        11.4226   19.2444   39.0590 H           1 MOL       0.2095
     58 H22         7.3456   15.1591   39.0845 H           1 MOL       0.0938
     59 H23         5.3886   14.6207   37.9028 H           1 MOL       0.0671
     60 H24         3.7601   16.5224   39.6575 H           1 MOL       0.0648
     61 H25         3.7826   13.4524   39.6414 H           1 MOL       0.0649
     62 H26         4.7799   15.3967   41.7964 H           1 MOL       0.0647
     63 H27         5.3908   13.6084   43.1308 H           1 MOL       0.0584
     64 H28         5.4229   12.4343   41.7931 H           1 MOL       0.0584
     65 H29         5.0822   17.4007   38.0722 H           1 MOL       0.2101
     66 H30         3.0318   14.6268   37.6885 H           1 MOL       0.2100
     67 H31         3.7566   12.0676   43.1821 H           1 MOL       0.2095
     68 H32         0.4680   13.8939   40.9990 H           1 MOL       0.0524
     69 H33         1.6625   12.6231   40.6513 H           1 MOL       0.0524
     70 H34         1.1578   13.7604   39.3596 H           1 MOL       0.0524
@<TRIPOS>BOND
     1     1     2   2
     2     1     4   1
     3     1    11   1
     4     2     3   1
     5     4     5   1
     6     4     6   1
     7     6     7   1
     8     6     8   1
     9     8     9   1
    10     8    10   1
    11     9    14   1
    12    10    11   1
    13    10    12   1
    14    12    13   1
    15    14    15   1
    16    14    23   1
    17    15    16   1
    18    15    20   1
    19    16    17   1
    20    16    21   1
    21    17    18   1
    22    17    22   1
    23    18    19   1
    24    18    23   1
    25    19    24   1
    26    22    25   1
    27    25    26   1
    28    25    34   1
    29    26    27   1
    30    26    31   1
    31    27    28   1
    32    27    32   1
    33    28    29   1
    34    28    33   1
    35    29    30   1
    36    29    34   1
    37    30    35   1
    38    33    36   1
    39     3    37   1
    40     4    38   1
    41     5    39   1
    42     6    40   1
    43     7    41   1
    44     8    42   1
    45    10    43   1
    46    11    44   1
    47    12    45   1
    48    12    46   1
    49    13    47   1
    50    14    48   1
    51    15    49   1
    52    16    50   1
    53    17    51   1
    54    18    52   1
    55    19    53   1
    56    19    54   1
    57    20    55   1
    58    21    56   1
    59    24    57   1
    60    25    58   1
    61    26    59   1
    62    27    60   1
    63    28    61   1
    64    29    62   1
    65    30    63   1
    66    30    64   1
    67    31    65   1
    68    32    66   1
    69    35    67   1
    70    36    68   1
    71    36    69   1
    72    36    70   1
@<TRIPOS>SUBSTRUCTURE
     1  MOL      1

