@<TRIPOS>MOLECULE
1u33_ligand_068
    70    72
SMALL
GAST_HUCK
****
This file was generated by PARSER (from files_GN.cpp)

@<TRIPOS>ATOM
      1 CA1        10.6783   17.3860   44.0495 C.2         1 MOL       0.1322
      2 NA1        10.9656   18.5797   44.6064 N.2         1 MOL      -0.2068
      3 OA7        12.1615   19.1106   44.6552 O.3         1 MOL      -0.3046
      4 CA2        11.7445   16.5842   43.3916 C.3         1 MOL       0.1504
      5 OA2        12.2931   17.3073   42.3023 O.3         1 MOL      -0.3713
      6 CA3        11.2768   15.1928   42.8804 C.3         1 MOL       0.1237
      7 OA3        11.5039   14.2033   43.8899 O.3         1 MOL      -0.3840
      8 CA4         9.7786   15.1580   42.4711 C.3         1 MOL       0.1169
      9 OA4         9.5638   15.6588   41.1337 O.3         1 MOL      -0.3402
     10 CA5         8.8664   15.7465   43.5980 C.3         1 MOL       0.0902
     11 NA5         9.3815   16.9960   44.0894 N.pl3       1 MOL      -0.2990
     12 CA6         8.6241   14.7692   44.7903 C.3         1 MOL       0.0694
     13 OA6         7.2460   14.6754   45.1377 O.3         1 MOL      -0.3927
     14 CB1         8.9975   16.9357   40.7537 C.3         1 MOL       0.1884
     15 CB2         8.1118   16.7011   39.5033 C.3         1 MOL       0.1341
     16 CB3         8.9804   16.2366   38.3005 C.3         1 MOL       0.1144
     17 CB4        10.2083   17.1573   38.0486 C.3         1 MOL       0.1184
     18 CB5        10.9098   17.5990   39.3738 C.3         1 MOL       0.1134
     19 CB6        11.7846   18.8716   39.1934 C.3         1 MOL       0.0730
     20 OB2         7.1049   15.7242   39.7903 O.3         1 MOL      -0.3841
     21 OB3         8.1741   16.1887   37.1260 O.3         1 MOL      -0.3864
     22 OB4        11.1938   16.4208   37.2910 O.3         1 MOL      -0.3401
     23 OB5         9.9870   17.9305   40.4348 O.3         1 MOL      -0.3405
     24 OB6        12.9265   18.6433   38.3728 O.3         1 MOL      -0.3924
     25 CD1        11.2634   16.5303   35.8537 C.3         1 MOL       0.1884
     26 CD2        10.9624   15.1713   35.1544 C.3         1 MOL       0.1341
     27 CD3        12.0859   14.1282   35.4503 C.3         1 MOL       0.1143
     28 CD4        13.4926   14.7080   35.1311 C.3         1 MOL       0.1150
     29 CD5        13.6878   16.1062   35.8065 C.3         1 MOL       0.1133
     30 CD6        14.9867   16.8207   35.3529 C.3         1 MOL       0.0730
     31 OD2         9.6876   14.6504   35.5378 O.3         1 MOL      -0.3841
     32 OD3        11.8820   12.9480   34.6613 O.3         1 MOL      -0.3864
     33 OD4        14.5622   13.7642   35.3697 O.3         1 MOL      -0.3745
     34 OD5        12.5818   16.9856   35.4730 O.3         1 MOL      -0.3405
     35 OD6        16.1645   16.0416   35.5751 O.3         1 MOL      -0.3924
     36 CD7        14.7639   13.2137   36.6836 C.3         1 MOL       0.0370
     37 H1         12.0464   20.0345   44.3543 H           1 MOL       0.2523
     38 H2         12.5579   16.4320   44.0973 H           1 MOL       0.0843
     39 H3         12.9894   17.8861   42.6714 H           1 MOL       0.2137
     40 H4         11.8731   14.8767   42.0183 H           1 MOL       0.0674
     41 H5         12.4746   14.0823   43.9295 H           1 MOL       0.2103
     42 H6          9.4991   14.1116   42.3439 H           1 MOL       0.0650
     43 H7          7.8898   15.9584   43.1545 H           1 MOL       0.0603
     44 H8          8.7617   17.5792   44.5611 H           1 MOL       0.1812
     45 H9          9.1864   15.0996   45.6676 H           1 MOL       0.0581
     46 H10         8.9415   13.7580   44.5457 H           1 MOL       0.0581
     47 H11         7.0805   15.4359   45.7263 H           1 MOL       0.2095
     48 H12         8.3658   17.3452   41.5461 H           1 MOL       0.0938
     49 H13         7.6005   17.6337   39.2523 H           1 MOL       0.0671
     50 H14         9.3327   15.2254   38.5085 H           1 MOL       0.0648
     51 H15         9.8727   18.0603   37.5268 H           1 MOL       0.0651
     52 H16        11.5585   16.7941   39.7304 H           1 MOL       0.0647
     53 H17        12.1417   19.2207   40.1693 H           1 MOL       0.0584
     54 H18        11.1846   19.6799   38.7509 H           1 MOL       0.0584
     55 H19         6.5112   16.1466   40.4520 H           1 MOL       0.2101
     56 H20         7.5340   15.4596   37.2737 H           1 MOL       0.2100
     57 H21        12.6400   18.9369   37.4796 H           1 MOL       0.2095
     58 H22        10.5519   17.2628   35.4651 H           1 MOL       0.0938
     59 H23        10.9258   15.3395   34.0701 H           1 MOL       0.0671
     60 H24        12.0197   13.8491   36.5051 H           1 MOL       0.0648
     61 H25        13.5144   14.8821   34.0507 H           1 MOL       0.0649
     62 H26        13.7387   15.9857   36.8911 H           1 MOL       0.0647
     63 H27        15.0931   17.7614   35.9058 H           1 MOL       0.0584
     64 H28        14.9331   17.0624   34.2817 H           1 MOL       0.0584
     65 H29         9.7985   14.3497   36.4647 H           1 MOL       0.2101
     66 H30        10.9104   12.8206   34.6234 H           1 MOL       0.2100
     67 H31        16.2524   15.9969   36.5536 H           1 MOL       0.2095
     68 H32        15.6834   12.6251   36.6655 H           1 MOL       0.0524
     69 H33        13.9463   12.5487   36.9630 H           1 MOL       0.0524
     70 H34        14.8786   13.9906   37.4396 H           1 MOL       0.0524
@<TRIPOS>BOND
     1     1     2   2
     2     1     4   1
     3     1    11   1
     4     2     3   1
     5     4     5   1
     6     4     6   1
     7     6     7   1
     8     6     8   1
     9     8     9   1
    10     8    10   1
    11     9    14   1
    12    10    11   1
    13    10    12   1
    14    12    13   1
    15    14    15   1
    16    14    23   1
    17    15    16   1
    18    15    20   1
    19    16    17   1
    20    16    21   1
    21    17    18   1
    22    17    22   1
    23    18    19   1
    24    18    23   1
    25    19    24   1
    26    22    25   1
    27    25    26   1
    28    25    34   1
    29    26    27   1
    30    26    31   1
    31    27    28   1
    32    27    32   1
    33    28    29   1
    34    28    33   1
    35    29    30   1
    36    29    34   1
    37    30    35   1
    38    33    36   1
    39     3    37   1
    40     4    38   1
    41     5    39   1
    42     6    40   1
    43     7    41   1
    44     8    42   1
    45    10    43   1
    46    11    44   1
    47    12    45   1
    48    12    46   1
    49    13    47   1
    50    14    48   1
    51    15    49   1
    52    16    50   1
    53    17    51   1
    54    18    52   1
    55    19    53   1
    56    19    54   1
    57    20    55   1
    58    21    56   1
    59    24    57   1
    60    25    58   1
    61    26    59   1
    62    27    60   1
    63    28    61   1
    64    29    62   1
    65    30    63   1
    66    30    64   1
    67    31    65   1
    68    32    66   1
    69    35    67   1
    70    36    68   1
    71    36    69   1
    72    36    70   1
@<TRIPOS>SUBSTRUCTURE
     1  MOL      1

