@<TRIPOS>MOLECULE
1u33_ligand_043
    70    72
SMALL
GAST_HUCK
****
This file was generated by PARSER (from files_GN.cpp)

@<TRIPOS>ATOM
      1 CA1        14.9744   14.7579   38.0715 C.2         1 MOL       0.1322
      2 NA1        15.3677   14.3590   36.8426 N.2         1 MOL      -0.2068
      3 OA7        14.9280   13.2832   36.2423 O.3         1 MOL      -0.3046
      4 CA2        15.5552   16.0078   38.6285 C.3         1 MOL       0.1504
      5 OA2        16.9770   15.9225   38.5490 O.3         1 MOL      -0.3713
      6 CA3        15.1323   16.3039   40.1024 C.3         1 MOL       0.1237
      7 OA3        15.3294   17.6888   40.3887 O.3         1 MOL      -0.3840
      8 CA4        13.6540   15.8991   40.3516 C.3         1 MOL       0.1169
      9 OA4        13.2611   16.0604   41.7293 O.3         1 MOL      -0.3402
     10 CA5        13.5115   14.3815   40.0198 C.3         1 MOL       0.0902
     11 NA5        14.0312   14.0410   38.7304 N.pl3       1 MOL      -0.2990
     12 CA6        12.0585   13.8578   40.1348 C.3         1 MOL       0.0694
     13 OA6        11.3957   13.8889   38.8710 O.3         1 MOL      -0.3927
     14 CB1        12.7236   17.3102   42.2170 C.3         1 MOL       0.1884
     15 CB2        12.1448   17.0493   43.6252 C.3         1 MOL       0.1341
     16 CB3        10.8730   16.1498   43.5173 C.3         1 MOL       0.1144
     17 CB4         9.8264   16.7335   42.5264 C.3         1 MOL       0.1184
     18 CB5        10.5148   17.1189   41.1710 C.3         1 MOL       0.1134
     19 CB6         9.6219   17.9023   40.1732 C.3         1 MOL       0.0730
     20 OB2        13.1720   16.4499   44.4186 O.3         1 MOL      -0.3841
     21 OB3        10.2613   15.9546   44.7959 O.3         1 MOL      -0.3864
     22 OB4         8.8272   15.7009   42.3440 O.3         1 MOL      -0.3401
     23 OB5        11.7088   17.9127   41.3826 O.3         1 MOL      -0.3405
     24 OB6         8.4070   18.3709   40.7606 O.3         1 MOL      -0.3924
     25 CD1         7.4211   16.0547   42.3323 C.3         1 MOL       0.1884
     26 CD2         6.5562   14.8391   42.7802 C.3         1 MOL       0.1341
     27 CD3         6.5592   13.7218   41.7038 C.3         1 MOL       0.1143
     28 CD4         6.1583   14.2815   40.3104 C.3         1 MOL       0.1150
     29 CD5         7.0081   15.5357   39.9593 C.3         1 MOL       0.1133
     30 CD6         6.5195   16.2621   38.6759 C.3         1 MOL       0.0730
     31 OD2         7.0049   14.3434   44.0451 O.3         1 MOL      -0.3841
     32 OD3         5.6355   12.6954   42.0724 O.3         1 MOL      -0.3864
     33 OD4         6.3987   13.2478   39.3323 O.3         1 MOL      -0.3745
     34 OD5         6.9848   16.5153   41.0294 O.3         1 MOL      -0.3405
     35 OD6         5.1021   16.1895   38.5259 O.3         1 MOL      -0.3924
     36 CD7         5.2923   12.8772   38.4943 C.3         1 MOL       0.0370
     37 H1         15.3725   13.2836   35.3616 H           1 MOL       0.2523
     38 H2         15.2410   16.8341   37.9816 H           1 MOL       0.0843
     39 H3         17.3082   16.7803   38.8872 H           1 MOL       0.2137
     40 H4         15.7783   15.7267   40.7752 H           1 MOL       0.0674
     41 H5         16.2757   17.7791   40.6274 H           1 MOL       0.2103
     42 H6         13.0081   16.4665   39.6797 H           1 MOL       0.0650
     43 H7         14.1166   13.8171   40.7425 H           1 MOL       0.0603
     44 H8         13.6661   13.2506   38.2965 H           1 MOL       0.1812
     45 H9         11.4915   14.4388   40.8567 H           1 MOL       0.0581
     46 H10        12.0787   12.8289   40.4994 H           1 MOL       0.0581
     47 H11        10.5086   13.5003   39.0436 H           1 MOL       0.2095
     48 H12        13.5402   18.0286   42.3081 H           1 MOL       0.0938
     49 H13        11.8825   18.0062   44.0871 H           1 MOL       0.0671
     50 H14        11.1866   15.1572   43.1597 H           1 MOL       0.0648
     51 H15         9.4195   17.6341   42.9804 H           1 MOL       0.0651
     52 H16        10.8091   16.1840   40.6678 H           1 MOL       0.0647
     53 H17         9.3793   17.2604   39.3285 H           1 MOL       0.0584
     54 H18        10.1675   18.7601   39.7807 H           1 MOL       0.0584
     55 H19        12.7760   16.3290   45.3153 H           1 MOL       0.2101
     56 H20        10.8063   16.4556   45.4314 H           1 MOL       0.2100
     57 H21         7.8671   18.6595   39.9896 H           1 MOL       0.2095
     58 H22         7.2151   16.8603   43.0467 H           1 MOL       0.0938
     59 H23         5.5261   15.1754   42.9180 H           1 MOL       0.0671
     60 H24         7.5606   13.2807   41.6498 H           1 MOL       0.0648
     61 H25         5.1016   14.5728   40.3646 H           1 MOL       0.0649
     62 H26         8.0404   15.2194   39.7884 H           1 MOL       0.0647
     63 H27         6.9782   15.8209   37.7922 H           1 MOL       0.0584
     64 H28         6.8156   17.3149   38.7175 H           1 MOL       0.0584
     65 H29         7.9074   13.9976   43.8834 H           1 MOL       0.2101
     66 H30         5.8050   11.9436   41.4611 H           1 MOL       0.2100
     67 H31         4.8139   17.1109   38.2783 H           1 MOL       0.2095
     68 H32         5.6138   12.0815   37.8196 H           1 MOL       0.0524
     69 H33         4.9563   13.7254   37.8929 H           1 MOL       0.0524
     70 H34         4.4608   12.5038   39.0980 H           1 MOL       0.0524
@<TRIPOS>BOND
     1     1     2   2
     2     1     4   1
     3     1    11   1
     4     2     3   1
     5     4     5   1
     6     4     6   1
     7     6     7   1
     8     6     8   1
     9     8     9   1
    10     8    10   1
    11     9    14   1
    12    10    11   1
    13    10    12   1
    14    12    13   1
    15    14    15   1
    16    14    23   1
    17    15    16   1
    18    15    20   1
    19    16    17   1
    20    16    21   1
    21    17    18   1
    22    17    22   1
    23    18    19   1
    24    18    23   1
    25    19    24   1
    26    22    25   1
    27    25    26   1
    28    25    34   1
    29    26    27   1
    30    26    31   1
    31    27    28   1
    32    27    32   1
    33    28    29   1
    34    28    33   1
    35    29    30   1
    36    29    34   1
    37    30    35   1
    38    33    36   1
    39     3    37   1
    40     4    38   1
    41     5    39   1
    42     6    40   1
    43     7    41   1
    44     8    42   1
    45    10    43   1
    46    11    44   1
    47    12    45   1
    48    12    46   1
    49    13    47   1
    50    14    48   1
    51    15    49   1
    52    16    50   1
    53    17    51   1
    54    18    52   1
    55    19    53   1
    56    19    54   1
    57    20    55   1
    58    21    56   1
    59    24    57   1
    60    25    58   1
    61    26    59   1
    62    27    60   1
    63    28    61   1
    64    29    62   1
    65    30    63   1
    66    30    64   1
    67    31    65   1
    68    32    66   1
    69    35    67   1
    70    36    68   1
    71    36    69   1
    72    36    70   1
@<TRIPOS>SUBSTRUCTURE
     1  MOL      1

