@<TRIPOS>MOLECULE
1u33_ligand_015
    70    72
SMALL
GAST_HUCK
****
This file was generated by PARSER (from files_GN.cpp)

@<TRIPOS>ATOM
      1 CA1         3.8543   14.5695   41.6640 C.2         1 MOL       0.1322
      2 NA1         2.5499   14.3525   41.9267 N.2         1 MOL      -0.2068
      3 OA7         1.5866   15.1149   41.4950 O.3         1 MOL      -0.3046
      4 CA2         4.8501   13.6468   42.2384 C.3         1 MOL       0.1504
      5 OA2         4.9794   13.9360   43.6307 O.3         1 MOL      -0.3713
      6 CA3         6.2356   13.7344   41.5340 C.3         1 MOL       0.1237
      7 OA3         6.1881   13.0372   40.2848 O.3         1 MOL      -0.3840
      8 CA4         6.6949   15.1989   41.2939 C.3         1 MOL       0.1169
      9 OA4         7.0943   15.7716   42.5583 O.3         1 MOL      -0.3402
     10 CA5         5.5548   16.0664   40.6455 C.3         1 MOL       0.0902
     11 NA5         4.2176   15.6497   40.9372 N.pl3       1 MOL      -0.2990
     12 CA6         5.6980   16.2537   39.1101 C.3         1 MOL       0.0694
     13 OA6         6.2779   15.1157   38.4750 O.3         1 MOL      -0.3927
     14 CB1         8.2046   16.6843   42.7468 C.3         1 MOL       0.1884
     15 CB2         8.6459   17.6243   41.5805 C.3         1 MOL       0.1341
     16 CB3         9.7484   17.0109   40.6761 C.3         1 MOL       0.1144
     17 CB4        10.9198   16.4620   41.5376 C.3         1 MOL       0.1184
     18 CB5        10.3739   15.4735   42.6190 C.3         1 MOL       0.1134
     19 CB6        11.4858   14.9807   43.5874 C.3         1 MOL       0.0730
     20 OB2         7.5131   18.0668   40.8430 O.3         1 MOL      -0.3841
     21 OB3        10.2287   18.0065   39.7751 O.3         1 MOL      -0.3864
     22 OB4        11.8602   15.7971   40.6614 O.3         1 MOL      -0.3401
     23 OB5         9.3334   16.0802   43.4160 O.3         1 MOL      -0.3405
     24 OB6        12.3622   16.0299   44.0079 O.3         1 MOL      -0.3924
     25 CD1        13.2756   16.1038   40.7372 C.3         1 MOL       0.1884
     26 CD2        13.6647   17.5096   40.2024 C.3         1 MOL       0.1341
     27 CD3        13.3212   17.5995   38.6920 C.3         1 MOL       0.1143
     28 CD4        14.0561   16.4788   37.8966 C.3         1 MOL       0.1150
     29 CD5        13.7565   15.0929   38.5574 C.3         1 MOL       0.1133
     30 CD6        14.5909   13.9420   37.9413 C.3         1 MOL       0.0730
     31 OD2        13.0331   18.5463   40.9431 O.3         1 MOL      -0.3841
     32 OD3        13.6585   18.8972   38.2065 O.3         1 MOL      -0.3864
     33 OD4        13.6012   16.4337   36.5237 O.3         1 MOL      -0.3745
     34 OD5        14.0031   15.1097   39.9868 O.3         1 MOL      -0.3405
     35 OD6        15.9986   14.1192   38.1231 O.3         1 MOL      -0.3924
     36 CD7        14.3270   17.2248   35.5640 C.3         1 MOL       0.0370
     37 H1          1.0324   15.2884   42.2853 H           1 MOL       0.2523
     38 H2          4.4826   12.6181   42.1426 H           1 MOL       0.0843
     39 H3          5.5782   13.2319   43.9643 H           1 MOL       0.2137
     40 H4          6.9863   13.2219   42.1406 H           1 MOL       0.0674
     41 H5          6.0401   12.0953   40.5063 H           1 MOL       0.2103
     42 H6          7.5536   15.1462   40.6295 H           1 MOL       0.0650
     43 H7          5.6028   17.0711   41.0704 H           1 MOL       0.0603
     44 H8          3.5041   16.2251   40.6181 H           1 MOL       0.1812
     45 H9          6.3211   17.1297   38.9025 H           1 MOL       0.0581
     46 H10         4.7142   16.4330   38.6636 H           1 MOL       0.0581
     47 H11         6.3237   15.3605   37.5251 H           1 MOL       0.2095
     48 H12         7.8030   17.3533   43.5122 H           1 MOL       0.0938
     49 H13         9.0768   18.5194   42.0340 H           1 MOL       0.0671
     50 H14         9.3421   16.2106   40.0591 H           1 MOL       0.0648
     51 H15        11.3726   17.3122   42.0536 H           1 MOL       0.0651
     52 H16         9.9644   14.5913   42.1202 H           1 MOL       0.0647
     53 H17        12.0961   14.2263   43.0820 H           1 MOL       0.0584
     54 H18        11.0433   14.5079   44.4689 H           1 MOL       0.0584
     55 H19         7.8417   18.5098   40.0318 H           1 MOL       0.2101
     56 H20         9.4785   18.1966   39.1743 H           1 MOL       0.2100
     57 H21        12.3155   16.0800   44.9981 H           1 MOL       0.2095
     58 H22        13.6193   16.0150   41.7711 H           1 MOL       0.0938
     59 H23        14.7431   17.6406   40.3311 H           1 MOL       0.0671
     60 H24        12.2431   17.4779   38.5626 H           1 MOL       0.0648
     61 H25        15.1338   16.6635   37.9601 H           1 MOL       0.0649
     62 H26        12.7023   14.8445   38.3878 H           1 MOL       0.0647
     63 H27        14.3907   13.8683   36.8697 H           1 MOL       0.0584
     64 H28        14.3085   12.9898   38.4082 H           1 MOL       0.0584
     65 H29        13.7147   19.2387   41.0574 H           1 MOL       0.2101
     66 H30        12.9210   19.1440   37.6072 H           1 MOL       0.2100
     67 H31        16.1722   13.8793   39.0550 H           1 MOL       0.2095
     68 H32        13.8448   17.1132   34.5939 H           1 MOL       0.0524
     69 H33        15.3610   16.8741   35.4764 H           1 MOL       0.0524
     70 H34        14.3292   18.2814   35.8253 H           1 MOL       0.0524
@<TRIPOS>BOND
     1     1     2   2
     2     1     4   1
     3     1    11   1
     4     2     3   1
     5     4     5   1
     6     4     6   1
     7     6     7   1
     8     6     8   1
     9     8     9   1
    10     8    10   1
    11     9    14   1
    12    10    11   1
    13    10    12   1
    14    12    13   1
    15    14    15   1
    16    14    23   1
    17    15    16   1
    18    15    20   1
    19    16    17   1
    20    16    21   1
    21    17    18   1
    22    17    22   1
    23    18    19   1
    24    18    23   1
    25    19    24   1
    26    22    25   1
    27    25    26   1
    28    25    34   1
    29    26    27   1
    30    26    31   1
    31    27    28   1
    32    27    32   1
    33    28    29   1
    34    28    33   1
    35    29    30   1
    36    29    34   1
    37    30    35   1
    38    33    36   1
    39     3    37   1
    40     4    38   1
    41     5    39   1
    42     6    40   1
    43     7    41   1
    44     8    42   1
    45    10    43   1
    46    11    44   1
    47    12    45   1
    48    12    46   1
    49    13    47   1
    50    14    48   1
    51    15    49   1
    52    16    50   1
    53    17    51   1
    54    18    52   1
    55    19    53   1
    56    19    54   1
    57    20    55   1
    58    21    56   1
    59    24    57   1
    60    25    58   1
    61    26    59   1
    62    27    60   1
    63    28    61   1
    64    29    62   1
    65    30    63   1
    66    30    64   1
    67    31    65   1
    68    32    66   1
    69    35    67   1
    70    36    68   1
    71    36    69   1
    72    36    70   1
@<TRIPOS>SUBSTRUCTURE
     1  MOL      1

