@<TRIPOS>MOLECULE
1u33_ligand_072
    70    72
SMALL
GAST_HUCK
****
This file was generated by PARSER (from files_GN.cpp)

@<TRIPOS>ATOM
      1 CA1        13.7683   17.2644   39.7241 C.2         1 MOL       0.1322
      2 NA1        13.9924   17.7004   40.9835 N.2         1 MOL      -0.2068
      3 OA7        14.0015   18.9475   41.3914 O.3         1 MOL      -0.3046
      4 CA2        13.5057   18.2080   38.6040 C.3         1 MOL       0.1504
      5 OA2        12.2163   18.7802   38.8158 O.3         1 MOL      -0.3713
      6 CA3        13.5839   17.5209   37.2085 C.3         1 MOL       0.1237
      7 OA3        14.9466   17.3880   36.7922 O.3         1 MOL      -0.3840
      8 CA4        12.8687   16.1405   37.2207 C.3         1 MOL       0.1169
      9 OA4        11.4747   16.4631   37.4471 O.3         1 MOL      -0.3402
     10 CA5        13.4851   15.2205   38.3359 C.3         1 MOL       0.0902
     11 NA5        13.7479   15.9206   39.5601 N.pl3       1 MOL      -0.2990
     12 CA6        14.7911   14.4676   37.9514 C.3         1 MOL       0.0694
     13 OA6        14.7095   13.8875   36.6520 O.3         1 MOL      -0.3927
     14 CB1        10.4241   15.5268   37.1253 C.3         1 MOL       0.1884
     15 CB2         9.0463   16.2325   37.2346 C.3         1 MOL       0.1341
     16 CB3         8.7745   16.6647   38.7015 C.3         1 MOL       0.1144
     17 CB4         8.9650   15.5282   39.7456 C.3         1 MOL       0.1184
     18 CB5        10.2138   14.6441   39.4087 C.3         1 MOL       0.1134
     19 CB6        10.1596   13.2360   40.0477 C.3         1 MOL       0.0730
     20 OB2         9.0318   17.3679   36.3625 O.3         1 MOL      -0.3841
     21 OB3         7.4376   17.1671   38.7949 O.3         1 MOL      -0.3864
     22 OB4         9.0734   16.2430   41.0018 O.3         1 MOL      -0.3401
     23 OB5        10.4172   14.3912   37.9978 O.3         1 MOL      -0.3405
     24 OB6         9.7536   12.2250   39.1216 O.3         1 MOL      -0.3924
     25 CD1         8.9820   15.6102   42.2989 C.3         1 MOL       0.1884
     26 CD2         8.6946   16.6970   43.3715 C.3         1 MOL       0.1341
     27 CD3         9.9112   17.6562   43.4963 C.3         1 MOL       0.1143
     28 CD4        11.2494   16.8946   43.7691 C.3         1 MOL       0.1150
     29 CD5        11.3871   15.6927   42.7827 C.3         1 MOL       0.1133
     30 CD6        12.5314   14.7261   43.1664 C.3         1 MOL       0.0730
     31 OD2         7.5013   17.4146   43.0441 O.3         1 MOL      -0.3841
     32 OD3         9.6464   18.5910   44.5471 O.3         1 MOL      -0.3864
     33 OD4        12.4444   17.6914   43.5835 O.3         1 MOL      -0.3745
     34 OD5        10.1836   14.9056   42.6874 O.3         1 MOL      -0.3405
     35 OD6        12.2474   14.0116   44.3737 O.3         1 MOL      -0.3924
     36 CD7        12.3789   19.1128   43.7808 C.3         1 MOL       0.0370
     37 H1         13.1145   19.2999   41.1531 H           1 MOL       0.2523
     38 H2         14.2306   19.0197   38.6162 H           1 MOL       0.0843
     39 H3         12.0190   19.3035   38.0120 H           1 MOL       0.2137
     40 H4         13.1006   18.1550   36.4584 H           1 MOL       0.0674
     41 H5         14.9749   17.6948   35.8552 H           1 MOL       0.2103
     42 H6         12.9797   15.6757   36.2319 H           1 MOL       0.0650
     43 H7         12.7612   14.4551   38.5799 H           1 MOL       0.0603
     44 H8         13.9562   15.3890   40.3453 H           1 MOL       0.1812
     45 H9         14.9574   13.6467   38.6578 H           1 MOL       0.0581
     46 H10        15.6622   15.1236   37.9927 H           1 MOL       0.0581
     47 H11        14.9878   14.6028   36.0339 H           1 MOL       0.2095
     48 H12        10.5359   15.1656   36.0967 H           1 MOL       0.0938
     49 H13         8.2555   15.5458   36.9133 H           1 MOL       0.0671
     50 H14         9.4619   17.4858   38.9335 H           1 MOL       0.0648
     51 H15         8.0669   14.9055   39.7457 H           1 MOL       0.0651
     52 H16        11.0949   15.1628   39.7896 H           1 MOL       0.0647
     53 H17         9.4638   13.2055   40.8798 H           1 MOL       0.0584
     54 H18        11.1471   12.9704   40.4197 H           1 MOL       0.0584
     55 H19         8.7337   18.1185   36.9221 H           1 MOL       0.2101
     56 H20         7.4119   17.6954   39.6202 H           1 MOL       0.2100
     57 H21         8.8584   12.4979   38.8088 H           1 MOL       0.2095
     58 H22         8.1477   14.8972   42.3043 H           1 MOL       0.0938
     59 H23         8.5230   16.1899   44.3327 H           1 MOL       0.0671
     60 H24        10.0285   18.2141   42.5607 H           1 MOL       0.0648
     61 H25        11.2231   16.5306   44.8027 H           1 MOL       0.0649
     62 H26        11.6267   16.0987   41.8001 H           1 MOL       0.0647
     63 H27        13.4839   15.2568   43.2764 H           1 MOL       0.0584
     64 H28        12.6509   13.9884   42.3699 H           1 MOL       0.0584
     65 H29         7.3322   17.9468   43.8491 H           1 MOL       0.2101
     66 H30         9.1713   19.3167   44.0962 H           1 MOL       0.2100
     67 H31        12.4821   14.6221   45.1094 H           1 MOL       0.2095
     68 H32        13.3917   19.4983   43.7373 H           1 MOL       0.0524
     69 H33        11.9334   19.3629   44.7525 H           1 MOL       0.0524
     70 H34        11.8022   19.5644   42.9690 H           1 MOL       0.0524
@<TRIPOS>BOND
     1     1     2   2
     2     1     4   1
     3     1    11   1
     4     2     3   1
     5     4     5   1
     6     4     6   1
     7     6     7   1
     8     6     8   1
     9     8     9   1
    10     8    10   1
    11     9    14   1
    12    10    11   1
    13    10    12   1
    14    12    13   1
    15    14    15   1
    16    14    23   1
    17    15    16   1
    18    15    20   1
    19    16    17   1
    20    16    21   1
    21    17    18   1
    22    17    22   1
    23    18    19   1
    24    18    23   1
    25    19    24   1
    26    22    25   1
    27    25    26   1
    28    25    34   1
    29    26    27   1
    30    26    31   1
    31    27    28   1
    32    27    32   1
    33    28    29   1
    34    28    33   1
    35    29    30   1
    36    29    34   1
    37    30    35   1
    38    33    36   1
    39     3    37   1
    40     4    38   1
    41     5    39   1
    42     6    40   1
    43     7    41   1
    44     8    42   1
    45    10    43   1
    46    11    44   1
    47    12    45   1
    48    12    46   1
    49    13    47   1
    50    14    48   1
    51    15    49   1
    52    16    50   1
    53    17    51   1
    54    18    52   1
    55    19    53   1
    56    19    54   1
    57    20    55   1
    58    21    56   1
    59    24    57   1
    60    25    58   1
    61    26    59   1
    62    27    60   1
    63    28    61   1
    64    29    62   1
    65    30    63   1
    66    30    64   1
    67    31    65   1
    68    32    66   1
    69    35    67   1
    70    36    68   1
    71    36    69   1
    72    36    70   1
@<TRIPOS>SUBSTRUCTURE
     1  MOL      1

