@<TRIPOS>MOLECULE
1u33_ligand_083
    70    72
SMALL
GAST_HUCK
****
This file was generated by PARSER (from files_GN.cpp)

@<TRIPOS>ATOM
      1 CA1         9.2294   17.1504   42.9164 C.2         1 MOL       0.1322
      2 NA1         7.9611   16.6917   43.0377 N.2         1 MOL      -0.2068
      3 OA7         7.4973   15.9877   44.0300 O.3         1 MOL      -0.3046
      4 CA2        10.2898   16.8818   43.9359 C.3         1 MOL       0.1504
      5 OA2         9.9484   17.5704   45.1437 O.3         1 MOL      -0.3713
      6 CA3        11.7311   17.2994   43.4862 C.3         1 MOL       0.1237
      7 OA3        12.7102   16.4400   44.0728 O.3         1 MOL      -0.3840
      8 CA4        11.8913   17.2487   41.9399 C.3         1 MOL       0.1169
      9 OA4        13.2055   17.6832   41.5114 O.3         1 MOL      -0.3402
     10 CA5        10.8004   18.1659   41.3017 C.3         1 MOL       0.0902
     11 NA5         9.4962   17.7573   41.7422 N.pl3       1 MOL      -0.2990
     12 CA6        10.8014   18.2008   39.7502 C.3         1 MOL       0.0694
     13 OA6        11.9014   18.9392   39.2270 O.3         1 MOL      -0.3927
     14 CB1        14.0436   16.7252   40.8311 C.3         1 MOL       0.1884
     15 CB2        15.2593   17.4308   40.1823 C.3         1 MOL       0.1341
     16 CB3        16.0844   16.4442   39.2978 C.3         1 MOL       0.1144
     17 CB4        15.2202   15.5806   38.3337 C.3         1 MOL       0.1184
     18 CB5        13.9396   15.0371   39.0466 C.3         1 MOL       0.1134
     19 CB6        14.0951   13.6726   39.7766 C.3         1 MOL       0.0730
     20 OB2        14.8201   18.5441   39.4159 O.3         1 MOL      -0.3841
     21 OB3        16.8701   15.6207   40.1685 O.3         1 MOL      -0.3864
     22 OB4        14.7377   16.4041   37.2554 O.3         1 MOL      -0.3401
     23 OB5        13.2894   16.0566   39.8107 O.3         1 MOL      -0.3405
     24 OB6        15.3295   13.4728   40.4659 O.3         1 MOL      -0.3924
     25 CD1        15.1410   16.1265   35.8976 C.3         1 MOL       0.1884
     26 CD2        14.2595   16.9742   34.9405 C.3         1 MOL       0.1341
     27 CD3        12.7857   16.4828   35.0081 C.3         1 MOL       0.1143
     28 CD4        12.6997   14.9528   34.7131 C.3         1 MOL       0.1150
     29 CD5        13.7508   14.1276   35.5202 C.3         1 MOL       0.1133
     30 CD6        13.8874   12.6898   34.9708 C.3         1 MOL       0.0730
     31 OD2        14.3412   18.3567   35.2735 O.3         1 MOL      -0.3841
     32 OD3        11.9852   17.2089   34.0708 O.3         1 MOL      -0.3864
     33 OD4        11.3540   14.4194   34.7964 O.3         1 MOL      -0.3745
     34 OD5        15.0609   14.7325   35.5200 O.3         1 MOL      -0.3405
     35 OD6        14.9418   11.9831   35.6369 O.3         1 MOL      -0.3924
     36 CD7        10.5968   14.5394   36.0170 C.3         1 MOL       0.0370
     37 H1          7.4944   16.5956   44.7923 H           1 MOL       0.2523
     38 H2         10.2904   15.8061   44.1413 H           1 MOL       0.0843
     39 H3          9.2132   17.0581   45.5366 H           1 MOL       0.2137
     40 H4         11.9372   18.3175   43.8286 H           1 MOL       0.0674
     41 H5         12.5174   16.4213   45.0333 H           1 MOL       0.2103
     42 H6         11.6824   16.2171   41.6383 H           1 MOL       0.0650
     43 H7         10.9633   19.1834   41.6598 H           1 MOL       0.0603
     44 H8          8.7582   17.8528   41.1139 H           1 MOL       0.1812
     45 H9          9.8913   18.6895   39.3924 H           1 MOL       0.0581
     46 H10        10.8260   17.1845   39.3500 H           1 MOL       0.0581
     47 H11        11.6595   19.1617   38.3002 H           1 MOL       0.2095
     48 H12        14.3950   16.0146   41.5789 H           1 MOL       0.0938
     49 H13        15.8891   17.8312   40.9803 H           1 MOL       0.0671
     50 H14        16.8014   17.0154   38.6998 H           1 MOL       0.0648
     51 H15        15.8074   14.7341   37.9654 H           1 MOL       0.0651
     52 H16        13.1920   14.8192   38.2560 H           1 MOL       0.0647
     53 H17        14.0080   12.8606   39.0393 H           1 MOL       0.0584
     54 H18        13.2711   13.5550   40.4952 H           1 MOL       0.0584
     55 H19        14.1088   18.2040   38.8327 H           1 MOL       0.2101
     56 H20        16.9691   14.7560   39.6998 H           1 MOL       0.2100
     57 H21        15.3493   14.1475   41.1719 H           1 MOL       0.2095
     58 H22        16.1797   16.4378   35.7782 H           1 MOL       0.0938
     59 H23        14.6349   16.8529   33.9202 H           1 MOL       0.0671
     60 H24        12.4031   16.6961   36.0222 H           1 MOL       0.0648
     61 H25        12.9716   14.8589   33.6567 H           1 MOL       0.0649
     62 H26        13.4164   14.0473   36.5762 H           1 MOL       0.0647
     63 H27        14.1413   12.7264   33.9021 H           1 MOL       0.0584
     64 H28        12.9385   12.1346   35.0977 H           1 MOL       0.0584
     65 H29        14.0787   18.4274   36.2152 H           1 MOL       0.2101
     66 H30        11.0611   16.9878   34.3114 H           1 MOL       0.2100
     67 H31        14.4915   11.2606   36.1537 H           1 MOL       0.2095
     68 H32         9.6705   13.9834   35.8827 H           1 MOL       0.0524
     69 H33        10.3406   15.5783   36.2112 H           1 MOL       0.0524
     70 H34        11.1235   14.1195   36.8711 H           1 MOL       0.0524
@<TRIPOS>BOND
     1     1     2   2
     2     1     4   1
     3     1    11   1
     4     2     3   1
     5     4     5   1
     6     4     6   1
     7     6     7   1
     8     6     8   1
     9     8     9   1
    10     8    10   1
    11     9    14   1
    12    10    11   1
    13    10    12   1
    14    12    13   1
    15    14    15   1
    16    14    23   1
    17    15    16   1
    18    15    20   1
    19    16    17   1
    20    16    21   1
    21    17    18   1
    22    17    22   1
    23    18    19   1
    24    18    23   1
    25    19    24   1
    26    22    25   1
    27    25    26   1
    28    25    34   1
    29    26    27   1
    30    26    31   1
    31    27    28   1
    32    27    32   1
    33    28    29   1
    34    28    33   1
    35    29    30   1
    36    29    34   1
    37    30    35   1
    38    33    36   1
    39     3    37   1
    40     4    38   1
    41     5    39   1
    42     6    40   1
    43     7    41   1
    44     8    42   1
    45    10    43   1
    46    11    44   1
    47    12    45   1
    48    12    46   1
    49    13    47   1
    50    14    48   1
    51    15    49   1
    52    16    50   1
    53    17    51   1
    54    18    52   1
    55    19    53   1
    56    19    54   1
    57    20    55   1
    58    21    56   1
    59    24    57   1
    60    25    58   1
    61    26    59   1
    62    27    60   1
    63    28    61   1
    64    29    62   1
    65    30    63   1
    66    30    64   1
    67    31    65   1
    68    32    66   1
    69    35    67   1
    70    36    68   1
    71    36    69   1
    72    36    70   1
@<TRIPOS>SUBSTRUCTURE
     1  MOL      1

