@<TRIPOS>MOLECULE
1u33_ligand_035
    70    72
SMALL
GAST_HUCK
****
This file was generated by PARSER (from files_GN.cpp)

@<TRIPOS>ATOM
      1 CA1        13.9094   17.1630   41.5162 C.2         1 MOL       0.1322
      2 NA1        14.8836   17.5138   40.6486 N.2         1 MOL      -0.2068
      3 OA7        15.7098   16.6817   40.0841 O.3         1 MOL      -0.3046
      4 CA2        13.6819   15.7532   41.9292 C.3         1 MOL       0.1504
      5 OA2        13.0380   15.0450   40.8703 O.3         1 MOL      -0.3713
      6 CA3        12.8474   15.6578   43.2368 C.3         1 MOL       0.1237
      7 OA3        13.6992   15.9857   44.3339 O.3         1 MOL      -0.3840
      8 CA4        11.6034   16.5934   43.1942 C.3         1 MOL       0.1169
      9 OA4        10.6736   15.9953   42.2575 O.3         1 MOL      -0.3402
     10 CA5        12.0369   18.0752   42.8761 C.3         1 MOL       0.0902
     11 NA5        13.1630   18.1849   41.9919 N.pl3       1 MOL      -0.2990
     12 CA6        12.2639   18.9307   44.1546 C.3         1 MOL       0.0694
     13 OA6        11.0242   19.4271   44.6710 O.3         1 MOL      -0.3927
     14 CB1         9.4461   16.7007   41.9664 C.3         1 MOL       0.1884
     15 CB2         8.2554   15.7342   41.7157 C.3         1 MOL       0.1341
     16 CB3         8.3274   15.0845   40.3081 C.3         1 MOL       0.1144
     17 CB4         8.5548   16.1708   39.2074 C.3         1 MOL       0.1184
     18 CB5         9.8902   16.9079   39.5518 C.3         1 MOL       0.1134
     19 CB6        10.3916   17.9908   38.5478 C.3         1 MOL       0.0730
     20 OB2         8.1827   14.7409   42.7370 O.3         1 MOL      -0.3841
     21 OB3         7.1422   14.3307   40.0774 O.3         1 MOL      -0.3864
     22 OB4         8.5179   15.5005   37.9256 O.3         1 MOL      -0.3401
     23 OB5         9.6745   17.5617   40.8267 O.3         1 MOL      -0.3405
     24 OB6        11.7869   17.8395   38.2833 O.3         1 MOL      -0.3924
     25 CD1         7.6407   15.9617   36.8621 C.3         1 MOL       0.1884
     26 CD2         6.0977   15.8826   37.0629 C.3         1 MOL       0.1341
     27 CD3         5.6104   14.4128   37.1146 C.3         1 MOL       0.1143
     28 CD4         6.1035   13.5964   35.8814 C.3         1 MOL       0.1150
     29 CD5         7.6399   13.8118   35.6823 C.3         1 MOL       0.1133
     30 CD6         8.1590   13.2182   34.3483 C.3         1 MOL       0.0730
     31 OD2         5.6629   16.5923   38.2199 O.3         1 MOL      -0.3841
     32 OD3         4.1859   14.4016   37.2231 O.3         1 MOL      -0.3864
     33 OD4         5.8704   12.1840   36.0907 O.3         1 MOL      -0.3745
     34 OD5         7.9766   15.2194   35.6705 O.3         1 MOL      -0.3405
     35 OD6         7.8823   11.8253   34.2284 O.3         1 MOL      -0.3924
     36 CD7         4.5773   11.6631   35.7390 C.3         1 MOL       0.0370
     37 H1         16.5826   17.1197   40.1667 H           1 MOL       0.2523
     38 H2         14.6472   15.2689   42.1072 H           1 MOL       0.0843
     39 H3         13.7398   14.8715   40.2075 H           1 MOL       0.2137
     40 H4         12.5242   14.6238   43.3818 H           1 MOL       0.0674
     41 H5         13.1298   15.9601   45.1297 H           1 MOL       0.2103
     42 H6         11.1184   16.5515   44.1744 H           1 MOL       0.0650
     43 H7         11.2398   18.5900   42.3427 H           1 MOL       0.0603
     44 H8         13.3932   19.0760   41.6837 H           1 MOL       0.1812
     45 H9         12.9006   19.7887   43.9269 H           1 MOL       0.0581
     46 H10        12.7518   18.3462   44.9299 H           1 MOL       0.0581
     47 H11        10.5326   19.7773   43.9021 H           1 MOL       0.2095
     48 H12         9.1571   17.3382   42.8108 H           1 MOL       0.0938
     49 H13         7.3289   16.3151   41.7717 H           1 MOL       0.0671
     50 H14         9.1535   14.3658   40.2915 H           1 MOL       0.0648
     51 H15         7.7656   16.9201   39.2904 H           1 MOL       0.0651
     52 H16        10.6831   16.1598   39.6555 H           1 MOL       0.0647
     53 H17        10.2453   18.9989   38.9503 H           1 MOL       0.0584
     54 H18         9.8686   17.9494   37.5958 H           1 MOL       0.0584
     55 H19         9.0558   14.2963   42.7316 H           1 MOL       0.2101
     56 H20         6.4170   14.9868   40.0623 H           1 MOL       0.2100
     57 H21        11.9725   18.4982   37.5811 H           1 MOL       0.2095
     58 H22         7.8816   17.0031   36.6346 H           1 MOL       0.0938
     59 H23         5.6339   16.3648   36.1960 H           1 MOL       0.0671
     60 H24         6.0005   13.9354   38.0169 H           1 MOL       0.0648
     61 H25         5.5892   13.9629   34.9865 H           1 MOL       0.0649
     62 H26         8.1851   13.3194   36.4955 H           1 MOL       0.0647
     63 H27         9.2415   13.3526   34.2850 H           1 MOL       0.0584
     64 H28         7.7011   13.7366   33.5014 H           1 MOL       0.0584
     65 H29         5.1378   17.3630   37.9009 H           1 MOL       0.2101
     66 H30         3.8545   14.7638   36.3749 H           1 MOL       0.2100
     67 H31         8.4161   11.3986   34.9333 H           1 MOL       0.2095
     68 H32         4.5629   10.5980   35.9738 H           1 MOL       0.0524
     69 H33         4.3925   11.7826   34.6693 H           1 MOL       0.0524
     70 H34         3.7776   12.1460   36.3023 H           1 MOL       0.0524
@<TRIPOS>BOND
     1     1     2   2
     2     1     4   1
     3     1    11   1
     4     2     3   1
     5     4     5   1
     6     4     6   1
     7     6     7   1
     8     6     8   1
     9     8     9   1
    10     8    10   1
    11     9    14   1
    12    10    11   1
    13    10    12   1
    14    12    13   1
    15    14    15   1
    16    14    23   1
    17    15    16   1
    18    15    20   1
    19    16    17   1
    20    16    21   1
    21    17    18   1
    22    17    22   1
    23    18    19   1
    24    18    23   1
    25    19    24   1
    26    22    25   1
    27    25    26   1
    28    25    34   1
    29    26    27   1
    30    26    31   1
    31    27    28   1
    32    27    32   1
    33    28    29   1
    34    28    33   1
    35    29    30   1
    36    29    34   1
    37    30    35   1
    38    33    36   1
    39     3    37   1
    40     4    38   1
    41     5    39   1
    42     6    40   1
    43     7    41   1
    44     8    42   1
    45    10    43   1
    46    11    44   1
    47    12    45   1
    48    12    46   1
    49    13    47   1
    50    14    48   1
    51    15    49   1
    52    16    50   1
    53    17    51   1
    54    18    52   1
    55    19    53   1
    56    19    54   1
    57    20    55   1
    58    21    56   1
    59    24    57   1
    60    25    58   1
    61    26    59   1
    62    27    60   1
    63    28    61   1
    64    29    62   1
    65    30    63   1
    66    30    64   1
    67    31    65   1
    68    32    66   1
    69    35    67   1
    70    36    68   1
    71    36    69   1
    72    36    70   1
@<TRIPOS>SUBSTRUCTURE
     1  MOL      1

