@<TRIPOS>MOLECULE
1u33_ligand_086
    70    72
SMALL
GAST_HUCK
****
This file was generated by PARSER (from files_GN.cpp)

@<TRIPOS>ATOM
      1 CA1         6.7343   18.1254   33.9179 C.2         1 MOL       0.1322
      2 NA1         6.3045   18.5754   32.7197 N.2         1 MOL      -0.2068
      3 OA7         7.0830   19.1035   31.8083 O.3         1 MOL      -0.3046
      4 CA2         5.7452   17.5338   34.8581 C.3         1 MOL       0.1504
      5 OA2         4.5525   18.3327   34.8759 O.3         1 MOL      -0.3713
      6 CA3         6.2901   17.4144   36.3076 C.3         1 MOL       0.1237
      7 OA3         5.3529   16.6299   37.0545 O.3         1 MOL      -0.3840
      8 CA4         7.7269   16.8039   36.3173 C.3         1 MOL       0.1169
      9 OA4         8.3322   16.7745   37.6248 O.3         1 MOL      -0.3402
     10 CA5         8.6619   17.6981   35.4297 C.3         1 MOL       0.0902
     11 NA5         8.0558   18.1721   34.2202 N.pl3       1 MOL      -0.2990
     12 CA6         9.9925   16.9783   35.0789 C.3         1 MOL       0.0694
     13 OA6        10.7715   17.7622   34.1745 O.3         1 MOL      -0.3927
     14 CB1         7.7402   16.0111   38.6924 C.3         1 MOL       0.1884
     15 CB2         7.7755   16.8978   39.9582 C.3         1 MOL       0.1341
     16 CB3         7.3503   16.1020   41.2230 C.3         1 MOL       0.1144
     17 CB4         8.1484   14.7684   41.3809 C.3         1 MOL       0.1184
     18 CB5         8.1912   13.9689   40.0277 C.3         1 MOL       0.1134
     19 CB6         6.9929   13.0064   39.7482 C.3         1 MOL       0.0730
     20 OB2         9.0945   17.4357   40.1276 O.3         1 MOL      -0.3841
     21 OB3         5.9387   15.8616   41.1853 O.3         1 MOL      -0.3864
     22 OB4         9.5251   15.0537   41.7547 O.3         1 MOL      -0.3401
     23 OB5         8.5139   14.8067   38.8843 O.3         1 MOL      -0.3405
     24 OB6         5.8761   13.5913   39.0934 O.3         1 MOL      -0.3924
     25 CD1         9.9947   14.8676   43.1207 C.3         1 MOL       0.1884
     26 CD2         9.7241   16.0568   44.0759 C.3         1 MOL       0.1341
     27 CD3        10.4335   17.3310   43.5276 C.3         1 MOL       0.1143
     28 CD4        11.9613   17.0835   43.3141 C.3         1 MOL       0.1150
     29 CD5        12.2013   15.7364   42.5469 C.3         1 MOL       0.1133
     30 CD6        13.6830   15.2780   42.5420 C.3         1 MOL       0.0730
     31 OD2         8.3149   16.2176   44.2376 O.3         1 MOL      -0.3841
     32 OD3        10.1740   18.4108   44.4349 O.3         1 MOL      -0.3864
     33 OD4        12.6307   18.0888   42.5281 O.3         1 MOL      -0.3745
     34 OD5        11.4194   14.6468   43.0872 O.3         1 MOL      -0.3405
     35 OD6        14.2525   15.2633   43.8596 O.3         1 MOL      -0.3924
     36 CD7        12.6532   19.4413   42.9993 C.3         1 MOL       0.0370
     37 H1          6.4691   19.4306   31.1209 H           1 MOL       0.2523
     38 H2          5.4812   16.5406   34.4718 H           1 MOL       0.0843
     39 H3          3.8851   17.7817   35.3337 H           1 MOL       0.2137
     40 H4          6.3248   18.4159   36.7509 H           1 MOL       0.0674
     41 H5          4.8580   17.2686   37.6098 H           1 MOL       0.2103
     42 H6          7.6896   15.7937   35.8944 H           1 MOL       0.0650
     43 H7          8.9196   18.6015   35.9992 H           1 MOL       0.0603
     44 H8          8.6382   18.6033   33.5696 H           1 MOL       0.1812
     45 H9          9.7834   16.0082   34.6223 H           1 MOL       0.0581
     46 H10        10.5796   16.8193   35.9879 H           1 MOL       0.0581
     47 H11        11.5822   17.2369   34.0178 H           1 MOL       0.2095
     48 H12         6.7023   15.7666   38.4739 H           1 MOL       0.0938
     49 H13         7.0856   17.7396   39.8289 H           1 MOL       0.0671
     50 H14         7.5241   16.7463   42.0882 H           1 MOL       0.0648
     51 H15         7.6591   14.1428   42.1415 H           1 MOL       0.0651
     52 H16         9.0559   13.2969   40.1101 H           1 MOL       0.0647
     53 H17         6.6440   12.5696   40.6867 H           1 MOL       0.0584
     54 H18         7.3520   12.1989   39.1084 H           1 MOL       0.0584
     55 H19         8.9684   18.2534   40.6554 H           1 MOL       0.2101
     56 H20         5.7430   15.3975   42.0271 H           1 MOL       0.2100
     57 H21         5.5062   14.2315   39.7337 H           1 MOL       0.2095
     58 H22         9.5526   13.9701   43.5556 H           1 MOL       0.0938
     59 H23        10.1387   15.8179   45.0645 H           1 MOL       0.0671
     60 H24         9.9731   17.5888   42.5674 H           1 MOL       0.0648
     61 H25        12.4299   17.0086   44.2971 H           1 MOL       0.0649
     62 H26        11.9194   15.8765   41.4955 H           1 MOL       0.0647
     63 H27        14.2917   15.9310   41.9022 H           1 MOL       0.0584
     64 H28        13.7463   14.2566   42.1388 H           1 MOL       0.0584
     65 H29         8.1879   16.7969   45.0217 H           1 MOL       0.2101
     66 H30         9.9970   19.1792   43.8522 H           1 MOL       0.2100
     67 H31        15.0830   14.7390   43.7742 H           1 MOL       0.2095
     68 H32        13.4254   19.9843   42.4493 H           1 MOL       0.0524
     69 H33        12.8783   19.4999   44.0691 H           1 MOL       0.0524
     70 H34        11.6957   19.9225   42.7891 H           1 MOL       0.0524
@<TRIPOS>BOND
     1     1     2   2
     2     1     4   1
     3     1    11   1
     4     2     3   1
     5     4     5   1
     6     4     6   1
     7     6     7   1
     8     6     8   1
     9     8     9   1
    10     8    10   1
    11     9    14   1
    12    10    11   1
    13    10    12   1
    14    12    13   1
    15    14    15   1
    16    14    23   1
    17    15    16   1
    18    15    20   1
    19    16    17   1
    20    16    21   1
    21    17    18   1
    22    17    22   1
    23    18    19   1
    24    18    23   1
    25    19    24   1
    26    22    25   1
    27    25    26   1
    28    25    34   1
    29    26    27   1
    30    26    31   1
    31    27    28   1
    32    27    32   1
    33    28    29   1
    34    28    33   1
    35    29    30   1
    36    29    34   1
    37    30    35   1
    38    33    36   1
    39     3    37   1
    40     4    38   1
    41     5    39   1
    42     6    40   1
    43     7    41   1
    44     8    42   1
    45    10    43   1
    46    11    44   1
    47    12    45   1
    48    12    46   1
    49    13    47   1
    50    14    48   1
    51    15    49   1
    52    16    50   1
    53    17    51   1
    54    18    52   1
    55    19    53   1
    56    19    54   1
    57    20    55   1
    58    21    56   1
    59    24    57   1
    60    25    58   1
    61    26    59   1
    62    27    60   1
    63    28    61   1
    64    29    62   1
    65    30    63   1
    66    30    64   1
    67    31    65   1
    68    32    66   1
    69    35    67   1
    70    36    68   1
    71    36    69   1
    72    36    70   1
@<TRIPOS>SUBSTRUCTURE
     1  MOL      1

