@<TRIPOS>MOLECULE
1uto_ligand_012
    21    21
SMALL
GAST_HUCK
****
This file was generated by PARSER (from files_GN.cpp)

@<TRIPOS>ATOM
      1 C1'        43.9050   27.2062   41.7384 C.ar        1 PEA      -0.0380
      2 C6'        44.3270   27.8770   42.9125 C.ar        1 PEA      -0.0602
      3 C5'        45.5400   28.5952   42.9432 C.ar        1 PEA      -0.0686
      4 C4'        46.3368   28.6612   41.7854 C.ar        1 PEA      -0.0687
      5 C3'        45.9394   27.9918   40.6144 C.ar        1 PEA      -0.0686
      6 C2'        44.7268   27.2833   40.5902 C.ar        1 PEA      -0.0602
      7 C2         42.6609   26.3865   41.7078 C.3         1 PEA       0.0211
      8 C1         41.5231   26.9973   40.8461 C.3         1 PEA      -0.0258
      9 N          40.4281   27.5586   41.6559 N.4         1 PEA       0.2200
     10 H1         43.7569   27.8308   43.7693 H           1 PEA       0.0557
     11 H2         45.8324   29.0823   43.7977 H           1 PEA       0.0599
     12 H3         47.2211   29.1812   41.8033 H           1 PEA       0.0559
     13 H4         46.5256   28.0408   39.7753 H           1 PEA       0.0599
     14 H5         44.4594   26.8021   39.7335 H           1 PEA       0.0557
     15 H6         42.2831   26.2078   42.7225 H           1 PEA       0.0478
     16 H7         42.9268   25.4085   41.3051 H           1 PEA       0.0478
     17 H8         41.0801   26.2161   40.2184 H           1 PEA       0.0837
     18 H9         41.8857   27.7870   40.1848 H           1 PEA       0.0837
     19 H10        39.6547   27.8454   41.0434 H           1 PEA       0.1996
     20 H11        40.7611   28.3692   42.1950 H           1 PEA       0.1996
     21 H12        40.0817   26.8396   42.3106 H           1 PEA       0.1996
@<TRIPOS>BOND
     1     1     2  ar
     2     1     6  ar
     3     1     7   1
     4     2     3  ar
     5     3     4  ar
     6     4     5  ar
     7     5     6  ar
     8     7     8   1
     9     8     9   1
    10     2    10   1
    11     3    11   1
    12     4    12   1
    13     5    13   1
    14     6    14   1
    15     7    15   1
    16     7    16   1
    17     8    17   1
    18     8    18   1
    19     9    19   1
    20     9    20   1
    21     9    21   1
@<TRIPOS>SUBSTRUCTURE
     1  PEA      1

