@<TRIPOS>MOLECULE
1uto_ligand_010
    21    21
SMALL
GAST_HUCK
****
This file was generated by PARSER (from files_GN.cpp)

@<TRIPOS>ATOM
      1 C1'        44.8299   19.2953   50.6196 C.ar        1 PEA      -0.0380
      2 C6'        45.4738   19.1219   49.3712 C.ar        1 PEA      -0.0602
      3 C5'        45.6585   20.2177   48.5024 C.ar        1 PEA      -0.0686
      4 C4'        45.2054   21.4953   48.8734 C.ar        1 PEA      -0.0687
      5 C3'        44.5692   21.6824   50.1120 C.ar        1 PEA      -0.0686
      6 C2'        44.3863   20.5908   50.9799 C.ar        1 PEA      -0.0602
      7 C2         44.6117   18.1406   51.5335 C.3         1 PEA       0.0211
      8 C1         43.5263   17.1633   51.0155 C.3         1 PEA      -0.0258
      9 N          43.0618   16.2648   52.0803 N.4         1 PEA       0.2200
     10 H1         45.8148   18.2010   49.0863 H           1 PEA       0.0557
     11 H2         46.1178   20.0830   47.6001 H           1 PEA       0.0599
     12 H3         45.3367   22.2893   48.2405 H           1 PEA       0.0559
     13 H4         44.2398   22.6122   50.3837 H           1 PEA       0.0599
     14 H5         43.9228   20.7480   51.8771 H           1 PEA       0.0557
     15 H6         44.3109   18.4996   52.5230 H           1 PEA       0.0478
     16 H7         45.5512   17.5978   51.6652 H           1 PEA       0.0478
     17 H8         43.9285   16.5557   50.2034 H           1 PEA       0.0837
     18 H9         42.6656   17.7194   50.6379 H           1 PEA       0.0837
     19 H10        42.3542   15.6254   51.7132 H           1 PEA       0.1996
     20 H11        42.6532   16.8294   52.8263 H           1 PEA       0.1996
     21 H12        43.8488   15.7267   52.4486 H           1 PEA       0.1996
@<TRIPOS>BOND
     1     1     2  ar
     2     1     6  ar
     3     1     7   1
     4     2     3  ar
     5     3     4  ar
     6     4     5  ar
     7     5     6  ar
     8     7     8   1
     9     8     9   1
    10     2    10   1
    11     3    11   1
    12     4    12   1
    13     5    13   1
    14     6    14   1
    15     7    15   1
    16     7    16   1
    17     8    17   1
    18     8    18   1
    19     9    19   1
    20     9    20   1
    21     9    21   1
@<TRIPOS>SUBSTRUCTURE
     1  PEA      1

