@<TRIPOS>MOLECULE
1uto_ligand_007
    21    21
SMALL
GAST_HUCK
****
This file was generated by PARSER (from files_GN.cpp)

@<TRIPOS>ATOM
      1 C1'        44.1789   25.3976   43.2893 C.ar        1 PEA      -0.0380
      2 C6'        44.1952   24.2218   44.0771 C.ar        1 PEA      -0.0602
      3 C5'        45.3940   23.5135   44.2886 C.ar        1 PEA      -0.0686
      4 C4'        46.5970   23.9782   43.7253 C.ar        1 PEA      -0.0687
      5 C3'        46.5969   25.1465   42.9414 C.ar        1 PEA      -0.0686
      6 C2'        45.3950   25.8480   42.7227 C.ar        1 PEA      -0.0602
      7 C2         42.9185   26.1569   43.0641 C.3         1 PEA       0.0211
      8 C1         42.3702   25.9787   41.6279 C.3         1 PEA      -0.0258
      9 N          41.1028   26.6979   41.4570 N.4         1 PEA       0.2200
     10 H1         43.3293   23.8661   44.4931 H           1 PEA       0.0557
     11 H2         45.3928   22.6621   44.8540 H           1 PEA       0.0599
     12 H3         47.4656   23.4632   43.8838 H           1 PEA       0.0559
     13 H4         47.4723   25.4823   42.5306 H           1 PEA       0.0599
     14 H5         45.4202   26.6983   42.1570 H           1 PEA       0.0557
     15 H6         43.1023   27.2167   43.2604 H           1 PEA       0.0478
     16 H7         42.1423   25.8325   43.7653 H           1 PEA       0.0478
     17 H8         42.1812   24.9202   41.4302 H           1 PEA       0.0837
     18 H9         43.0853   26.3510   40.8925 H           1 PEA       0.0837
     19 H10        40.7499   26.5426   40.5105 H           1 PEA       0.1996
     20 H11        41.2495   27.6983   41.6059 H           1 PEA       0.1996
     21 H12        40.4176   26.3507   42.1345 H           1 PEA       0.1996
@<TRIPOS>BOND
     1     1     2  ar
     2     1     6  ar
     3     1     7   1
     4     2     3  ar
     5     3     4  ar
     6     4     5  ar
     7     5     6  ar
     8     7     8   1
     9     8     9   1
    10     2    10   1
    11     3    11   1
    12     4    12   1
    13     5    13   1
    14     6    14   1
    15     7    15   1
    16     7    16   1
    17     8    17   1
    18     8    18   1
    19     9    19   1
    20     9    20   1
    21     9    21   1
@<TRIPOS>SUBSTRUCTURE
     1  PEA      1

