@<TRIPOS>MOLECULE
1uto_ligand_016
    21    21
SMALL
GAST_HUCK
****
This file was generated by PARSER (from files_GN.cpp)

@<TRIPOS>ATOM
      1 C1'        40.2858   26.1706   49.9676 C.ar        1 PEA      -0.0380
      2 C6'        40.4484   26.4477   51.3474 C.ar        1 PEA      -0.0602
      3 C5'        39.4204   27.0679   52.0837 C.ar        1 PEA      -0.0686
      4 C4'        38.2177   27.4270   51.4462 C.ar        1 PEA      -0.0687
      5 C3'        38.0431   27.1606   50.0749 C.ar        1 PEA      -0.0686
      6 C2'        39.0683   26.5329   49.3411 C.ar        1 PEA      -0.0602
      7 C2         41.3562   25.4881   49.1903 C.3         1 PEA       0.0211
      8 C1         41.2584   23.9459   49.2672 C.3         1 PEA      -0.0258
      9 N          41.4665   23.4584   50.6379 N.4         1 PEA       0.2200
     10 H1         41.3166   26.1955   51.8274 H           1 PEA       0.0557
     11 H2         39.5417   27.2496   53.0844 H           1 PEA       0.0599
     12 H3         37.4722   27.8838   51.9769 H           1 PEA       0.0559
     13 H4         37.1699   27.4215   49.6103 H           1 PEA       0.0599
     14 H5         38.9212   26.3398   48.3461 H           1 PEA       0.0557
     15 H6         42.3479   25.7877   49.5448 H           1 PEA       0.0478
     16 H7         41.2935   25.7942   48.1421 H           1 PEA       0.0478
     17 H8         42.0289   23.5039   48.6308 H           1 PEA       0.0837
     18 H9         40.2826   23.6080   48.9092 H           1 PEA       0.0837
     19 H10        41.4023   22.4417   50.6496 H           1 PEA       0.1996
     20 H11        40.7535   23.8455   51.2591 H           1 PEA       0.1996
     21 H12        42.3900   23.7453   50.9674 H           1 PEA       0.1996
@<TRIPOS>BOND
     1     1     2  ar
     2     1     6  ar
     3     1     7   1
     4     2     3  ar
     5     3     4  ar
     6     4     5  ar
     7     5     6  ar
     8     7     8   1
     9     8     9   1
    10     2    10   1
    11     3    11   1
    12     4    12   1
    13     5    13   1
    14     6    14   1
    15     7    15   1
    16     7    16   1
    17     8    17   1
    18     8    18   1
    19     9    19   1
    20     9    20   1
    21     9    21   1
@<TRIPOS>SUBSTRUCTURE
     1  PEA      1

