@<TRIPOS>MOLECULE
1uto_ligand_021
    21    21
SMALL
GAST_HUCK
****
This file was generated by PARSER (from files_GN.cpp)

@<TRIPOS>ATOM
      1 C1'        42.3740   27.5485   44.1537 C.ar        1 PEA      -0.0380
      2 C6'        41.6479   26.6228   44.9346 C.ar        1 PEA      -0.0602
      3 C5'        40.9059   27.0582   46.0532 C.ar        1 PEA      -0.0686
      4 C4'        40.8673   28.4235   46.3902 C.ar        1 PEA      -0.0687
      5 C3'        41.5827   29.3534   45.6168 C.ar        1 PEA      -0.0686
      6 C2'        42.3212   28.9213   44.4977 C.ar        1 PEA      -0.0602
      7 C2         43.1858   27.1027   42.9839 C.3         1 PEA       0.0211
      8 C1         42.4073   27.1790   41.6478 C.3         1 PEA      -0.0258
      9 N          41.4240   26.0891   41.5161 N.4         1 PEA       0.2200
     10 H1         41.6663   25.6270   44.7021 H           1 PEA       0.0557
     11 H2         40.3894   26.3769   46.6158 H           1 PEA       0.0599
     12 H3         40.3359   28.7328   47.2027 H           1 PEA       0.0559
     13 H4         41.5593   30.3478   45.8645 H           1 PEA       0.0599
     14 H5         42.8310   29.6179   43.9537 H           1 PEA       0.0557
     15 H6         43.5495   26.0842   43.1434 H           1 PEA       0.0478
     16 H7         44.0776   27.7318   42.9079 H           1 PEA       0.0478
     17 H8         43.1182   27.0856   40.8197 H           1 PEA       0.0837
     18 H9         41.8991   28.1445   41.5396 H           1 PEA       0.0837
     19 H10        40.9299   26.2142   40.6245 H           1 PEA       0.1996
     20 H11        40.7479   26.1136   42.2930 H           1 PEA       0.1996
     21 H12        41.9219   25.1941   41.5162 H           1 PEA       0.1996
@<TRIPOS>BOND
     1     1     2  ar
     2     1     6  ar
     3     1     7   1
     4     2     3  ar
     5     3     4  ar
     6     4     5  ar
     7     5     6  ar
     8     7     8   1
     9     8     9   1
    10     2    10   1
    11     3    11   1
    12     4    12   1
    13     5    13   1
    14     6    14   1
    15     7    15   1
    16     7    16   1
    17     8    17   1
    18     8    18   1
    19     9    19   1
    20     9    20   1
    21     9    21   1
@<TRIPOS>SUBSTRUCTURE
     1  PEA      1

