@<TRIPOS>MOLECULE
1uto_ligand_006
    21    21
SMALL
GAST_HUCK
****
This file was generated by PARSER (from files_GN.cpp)

@<TRIPOS>ATOM
      1 C1'        45.4766   20.9581   50.7962 C.ar        1 PEA      -0.0380
      2 C6'        44.2882   21.6463   51.1384 C.ar        1 PEA      -0.0602
      3 C5'        44.2341   22.4559   52.2888 C.ar        1 PEA      -0.0686
      4 C4'        45.3620   22.5753   53.1214 C.ar        1 PEA      -0.0687
      5 C3'        46.5525   21.9033   52.7904 C.ar        1 PEA      -0.0686
      6 C2'        46.6099   21.1044   51.6335 C.ar        1 PEA      -0.0602
      7 C2         45.5435   20.0939   49.5840 C.3         1 PEA       0.0211
      8 C1         45.7275   18.5904   49.9094 C.3         1 PEA      -0.0258
      9 N          44.6106   18.0507   50.6970 N.4         1 PEA       0.2200
     10 H1         43.4544   21.5667   50.5524 H           1 PEA       0.0557
     11 H2         43.3725   22.9510   52.5247 H           1 PEA       0.0599
     12 H3         45.3194   23.1572   53.9622 H           1 PEA       0.0559
     13 H4         47.3741   21.9950   53.3912 H           1 PEA       0.0599
     14 H5         47.4869   20.6325   51.4016 H           1 PEA       0.0557
     15 H6         46.3770   20.4302   48.9615 H           1 PEA       0.0478
     16 H7         44.6364   20.1997   48.9797 H           1 PEA       0.0478
     17 H8         46.6500   18.4369   50.4719 H           1 PEA       0.0837
     18 H9         45.8035   18.0235   48.9771 H           1 PEA       0.0837
     19 H10        44.7659   17.0528   50.8559 H           1 PEA       0.1996
     20 H11        43.7315   18.1816   50.1921 H           1 PEA       0.1996
     21 H12        44.5603   18.5335   51.5965 H           1 PEA       0.1996
@<TRIPOS>BOND
     1     1     2  ar
     2     1     6  ar
     3     1     7   1
     4     2     3  ar
     5     3     4  ar
     6     4     5  ar
     7     5     6  ar
     8     7     8   1
     9     8     9   1
    10     2    10   1
    11     3    11   1
    12     4    12   1
    13     5    13   1
    14     6    14   1
    15     7    15   1
    16     7    16   1
    17     8    17   1
    18     8    18   1
    19     9    19   1
    20     9    20   1
    21     9    21   1
@<TRIPOS>SUBSTRUCTURE
     1  PEA      1

