@<TRIPOS>MOLECULE
1uto_ligand_018
    21    21
SMALL
GAST_HUCK
****
This file was generated by PARSER (from files_GN.cpp)

@<TRIPOS>ATOM
      1 C1'        39.6515   26.0671   51.4107 C.ar        1 PEA      -0.0380
      2 C6'        38.3697   26.6715   51.4041 C.ar        1 PEA      -0.0602
      3 C5'        37.5601   26.6510   52.5535 C.ar        1 PEA      -0.0686
      4 C4'        38.0115   26.0187   53.7243 C.ar        1 PEA      -0.0687
      5 C3'        39.2823   25.4183   53.7493 C.ar        1 PEA      -0.0686
      6 C2'        40.0996   25.4490   52.6034 C.ar        1 PEA      -0.0602
      7 C2         40.5041   26.0635   50.1874 C.3         1 PEA       0.0211
      8 C1         40.4480   24.7256   49.4054 C.3         1 PEA      -0.0258
      9 N          41.1015   23.6193   50.1136 N.4         1 PEA       0.2200
     10 H1         38.0160   27.1278   50.5583 H           1 PEA       0.0557
     11 H2         36.6370   27.0935   52.5405 H           1 PEA       0.0599
     12 H3         37.4180   25.9981   54.5564 H           1 PEA       0.0559
     13 H4         39.6146   24.9603   54.6018 H           1 PEA       0.0599
     14 H5         41.0274   25.0215   52.6474 H           1 PEA       0.0557
     15 H6         41.5402   26.2898   50.4597 H           1 PEA       0.0478
     16 H7         40.1821   26.8592   49.5110 H           1 PEA       0.0478
     17 H8         40.9600   24.8562   48.4501 H           1 PEA       0.0837
     18 H9         39.4079   24.4551   49.1999 H           1 PEA       0.0837
     19 H10        41.0081   22.7521   49.5787 H           1 PEA       0.1996
     20 H11        40.6688   23.4848   51.0302 H           1 PEA       0.1996
     21 H12        42.0952   23.8309   50.2361 H           1 PEA       0.1996
@<TRIPOS>BOND
     1     1     2  ar
     2     1     6  ar
     3     1     7   1
     4     2     3  ar
     5     3     4  ar
     6     4     5  ar
     7     5     6  ar
     8     7     8   1
     9     8     9   1
    10     2    10   1
    11     3    11   1
    12     4    12   1
    13     5    13   1
    14     6    14   1
    15     7    15   1
    16     7    16   1
    17     8    17   1
    18     8    18   1
    19     9    19   1
    20     9    20   1
    21     9    21   1
@<TRIPOS>SUBSTRUCTURE
     1  PEA      1

