@<TRIPOS>MOLECULE
1uto_ligand_005
    21    21
SMALL
GAST_HUCK
****
This file was generated by PARSER (from files_GN.cpp)

@<TRIPOS>ATOM
      1 C1'        40.4888   25.3492   48.8955 C.ar        1 PEA      -0.0380
      2 C6'        40.8860   24.0295   49.2210 C.ar        1 PEA      -0.0602
      3 C5'        42.1740   23.5578   48.9002 C.ar        1 PEA      -0.0686
      4 C4'        43.0931   24.3993   48.2497 C.ar        1 PEA      -0.0687
      5 C3'        42.7240   25.7199   47.9368 C.ar        1 PEA      -0.0686
      6 C2'        41.4340   26.1911   48.2571 C.ar        1 PEA      -0.0602
      7 C2         39.0922   25.7744   49.2192 C.3         1 PEA       0.0211
      8 C1         38.6016   27.1209   48.6189 C.3         1 PEA      -0.0258
      9 N          37.1495   27.3390   48.7871 N.4         1 PEA       0.2200
     10 H1         40.2333   23.3890   49.6839 H           1 PEA       0.0557
     11 H2         42.4388   22.5954   49.1255 H           1 PEA       0.0599
     12 H3         44.0223   24.0513   48.0025 H           1 PEA       0.0559
     13 H4         43.3924   26.3377   47.4673 H           1 PEA       0.0599
     14 H5         41.2032   27.1575   48.0179 H           1 PEA       0.0557
     15 H6         38.9928   25.8236   50.3080 H           1 PEA       0.0478
     16 H7         38.4081   25.0017   48.8611 H           1 PEA       0.0478
     17 H8         38.8142   27.1354   47.5490 H           1 PEA       0.0837
     18 H9         39.1241   27.9535   49.0932 H           1 PEA       0.0837
     19 H10        36.8837   28.2229   48.3479 H           1 PEA       0.1996
     20 H11        36.8898   27.3799   49.7754 H           1 PEA       0.1996
     21 H12        36.6274   26.5845   48.3373 H           1 PEA       0.1996
@<TRIPOS>BOND
     1     1     2  ar
     2     1     6  ar
     3     1     7   1
     4     2     3  ar
     5     3     4  ar
     6     4     5  ar
     7     5     6  ar
     8     7     8   1
     9     8     9   1
    10     2    10   1
    11     3    11   1
    12     4    12   1
    13     5    13   1
    14     6    14   1
    15     7    15   1
    16     7    16   1
    17     8    17   1
    18     8    18   1
    19     9    19   1
    20     9    20   1
    21     9    21   1
@<TRIPOS>SUBSTRUCTURE
     1  PEA      1

