@<TRIPOS>MOLECULE
1uto_ligand_008
    21    21
SMALL
GAST_HUCK
****
This file was generated by PARSER (from files_GN.cpp)

@<TRIPOS>ATOM
      1 C1'        43.5352   24.9303   44.8380 C.ar        1 PEA      -0.0380
      2 C6'        43.6658   25.1131   46.2358 C.ar        1 PEA      -0.0602
      3 C5'        44.8534   24.7524   46.8989 C.ar        1 PEA      -0.0686
      4 C4'        45.9259   24.1971   46.1767 C.ar        1 PEA      -0.0687
      5 C3'        45.8086   23.9997   44.7896 C.ar        1 PEA      -0.0686
      6 C2'        44.6171   24.3505   44.1304 C.ar        1 PEA      -0.0602
      7 C2         42.2831   25.3021   44.1227 C.3         1 PEA       0.0211
      8 C1         42.4921   26.3833   43.0224 C.3         1 PEA      -0.0258
      9 N          41.5631   26.1917   41.9048 N.4         1 PEA       0.2200
     10 H1         42.9013   25.5175   46.7815 H           1 PEA       0.0557
     11 H2         44.9364   24.8875   47.9094 H           1 PEA       0.0599
     12 H3         46.7882   23.9317   46.6595 H           1 PEA       0.0559
     13 H4         46.5906   23.6032   44.2609 H           1 PEA       0.0599
     14 H5         44.5571   24.2018   43.1207 H           1 PEA       0.0557
     15 H6         41.5282   25.6823   44.8184 H           1 PEA       0.0478
     16 H7         41.8702   24.3862   43.6911 H           1 PEA       0.0478
     17 H8         43.4980   26.3576   42.6001 H           1 PEA       0.0837
     18 H9         42.3373   27.3790   43.4473 H           1 PEA       0.0837
     19 H10        41.7122   26.9266   41.2109 H           1 PEA       0.1996
     20 H11        40.6034   26.2261   42.2517 H           1 PEA       0.1996
     21 H12        41.7377   25.2820   41.4710 H           1 PEA       0.1996
@<TRIPOS>BOND
     1     1     2  ar
     2     1     6  ar
     3     1     7   1
     4     2     3  ar
     5     3     4  ar
     6     4     5  ar
     7     5     6  ar
     8     7     8   1
     9     8     9   1
    10     2    10   1
    11     3    11   1
    12     4    12   1
    13     5    13   1
    14     6    14   1
    15     7    15   1
    16     7    16   1
    17     8    17   1
    18     8    18   1
    19     9    19   1
    20     9    20   1
    21     9    21   1
@<TRIPOS>SUBSTRUCTURE
     1  PEA      1

