@<TRIPOS>MOLECULE
1uto_ligand_002
    21    21
SMALL
GAST_HUCK
****
This file was generated by PARSER (from files_GN.cpp)

@<TRIPOS>ATOM
      1 C1'        46.0213   20.1613   52.3278 C.ar        1 PEA      -0.0380
      2 C6'        45.9264   21.0054   53.4615 C.ar        1 PEA      -0.0602
      3 C5'        46.6767   22.1912   53.5472 C.ar        1 PEA      -0.0686
      4 C4'        47.5062   22.5769   52.4779 C.ar        1 PEA      -0.0687
      5 C3'        47.5673   21.7829   51.3204 C.ar        1 PEA      -0.0686
      6 C2'        46.8374   20.5820   51.2456 C.ar        1 PEA      -0.0602
      7 C2         45.2860   18.8704   52.2679 C.3         1 PEA       0.0211
      8 C1         45.4500   17.9449   53.5079 C.3         1 PEA      -0.0258
      9 N          46.8100   17.9484   54.0726 N.4         1 PEA       0.2200
     10 H1         45.3448   20.7386   54.2543 H           1 PEA       0.0557
     11 H2         46.6245   22.7683   54.3922 H           1 PEA       0.0599
     12 H3         48.0405   23.4493   52.5338 H           1 PEA       0.0559
     13 H4         48.1326   22.0886   50.5236 H           1 PEA       0.0599
     14 H5         46.8996   20.0163   50.3923 H           1 PEA       0.0557
     15 H6         45.6025   18.2959   51.3910 H           1 PEA       0.0478
     16 H7         44.2271   19.0967   52.1367 H           1 PEA       0.0478
     17 H8         45.2134   16.9144   53.2276 H           1 PEA       0.0837
     18 H9         44.7494   18.2491   54.2856 H           1 PEA       0.0837
     19 H10        46.8773   17.2750   54.8364 H           1 PEA       0.1996
     20 H11        47.0327   18.8785   54.4321 H           1 PEA       0.1996
     21 H12        47.4888   17.6910   53.3527 H           1 PEA       0.1996
@<TRIPOS>BOND
     1     1     2  ar
     2     1     6  ar
     3     1     7   1
     4     2     3  ar
     5     3     4  ar
     6     4     5  ar
     7     5     6  ar
     8     7     8   1
     9     8     9   1
    10     2    10   1
    11     3    11   1
    12     4    12   1
    13     5    13   1
    14     6    14   1
    15     7    15   1
    16     7    16   1
    17     8    17   1
    18     8    18   1
    19     9    19   1
    20     9    20   1
    21     9    21   1
@<TRIPOS>SUBSTRUCTURE
     1  PEA      1

