@<TRIPOS>MOLECULE
1vso_ligand_001
    38    38
SMALL
GAST_HUCK
****
This file was generated by PARSER (from files_GN.cpp)

@<TRIPOS>ATOM
      1 N          41.7088    5.2536    5.3598 N.4         1 AT1       0.2349
      2 C          39.8061    6.8560    5.2285 C.3         1 AT1       0.0583
      3 O          38.7182    4.6496    3.2711 O.co2       1 AT1      -0.5641
      4 C1         40.2775    5.3741    5.0395 C.3         1 AT1       0.0429
      5 C2         39.9912    4.8541    3.6786 C.2         1 AT1       0.0877
      6 O1         40.9807    4.4942    2.8284 O.co2       1 AT1      -0.5641
      7 O2         38.1523    7.4020    8.4610 O.3         1 AT1      -0.1588
      8 O3         36.9511    6.2259    5.4192 O.3         1 AT1      -0.2854
      9 N1         37.1800    6.9555    7.7190 N.2         1 AT1      -0.0623
     10 C3         40.5420    7.9685    8.4809 C.3         1 AT1      -0.0364
     11 C4         35.6044    6.7050    5.2664 C.3         1 AT1       0.1385
     12 C5         37.6459    6.7401    6.4811 C.2         1 AT1       0.2368
     13 C6         39.0015    7.0618    6.4556 C.2         1 AT1       0.0787
     14 C7         39.3080    7.5039    7.7552 C.2         1 AT1       0.1218
     15 C9         41.7982    8.2228    7.5861 C.3         1 AT1      -0.0985
     16 C10        40.2136    9.3152    9.2072 C.3         1 AT1      -0.0985
     17 C11        40.9083    6.8859    9.5423 C.3         1 AT1      -0.0985
     18 P          34.9021    5.9759    3.9508 P.3         1 AT1       0.0891
     19 O4         35.1716    6.6672    2.7060 O.co2       1 AT1      -0.5605
     20 O5         35.3389    4.6055    3.8129 O.co2       1 AT1      -0.5605
     21 O6         33.4625    5.9220    4.1211 O.co2       1 AT1      -0.5605
     22 H1         41.8312    5.3472    6.3640 H           1 AT1       0.2012
     23 H2         42.2281    5.9818    4.8759 H           1 AT1       0.2012
     24 H3         42.0683    4.3446    5.0693 H           1 AT1       0.2012
     25 H4         39.1933    7.1644    4.3859 H           1 AT1       0.0584
     26 H5         40.6479    7.5304    5.1948 H           1 AT1       0.0584
     27 H6         39.7457    4.7080    5.7273 H           1 AT1       0.1060
     28 H7         35.5900    7.7862    5.1173 H           1 AT1       0.0800
     29 H8         35.0137    6.4601    6.1514 H           1 AT1       0.0800
     30 H9         42.6290    8.5954    8.1882 H           1 AT1       0.0081
     31 H10        41.5852    8.9675    6.8185 H           1 AT1       0.0081
     32 H11        42.1391    7.3027    7.1151 H           1 AT1       0.0081
     33 H12        39.3961    9.1935    9.9208 H           1 AT1       0.0081
     34 H13        39.9247   10.0789    8.4829 H           1 AT1       0.0081
     35 H14        41.0783    9.6789    9.7658 H           1 AT1       0.0081
     36 H15        41.0794    5.9219    9.0602 H           1 AT1       0.0081
     37 H16        40.1060    6.7564   10.2726 H           1 AT1       0.0081
     38 H17        41.8140    7.1591   10.0893 H           1 AT1       0.0081
@<TRIPOS>BOND
     1     4     1   1
     2     2     4   1
     3    13     2   1
     4     5     3  ar
     5     4     5   1
     6     5     6  ar
     7     9     7   1
     8     7    14   1
     9     8    11   1
    10    12     8   1
    11    12     9   2
    12    14    10   1
    13    10    15   1
    14    10    16   1
    15    10    17   1
    16    11    18   1
    17    12    13   1
    18    13    14   2
    19    18    19  ar
    20    18    20  ar
    21    18    21  ar
    22     1    22   1
    23     1    23   1
    24     1    24   1
    25     2    25   1
    26     2    26   1
    27     4    27   1
    28    11    28   1
    29    11    29   1
    30    15    30   1
    31    15    31   1
    32    15    32   1
    33    16    33   1
    34    16    34   1
    35    16    35   1
    36    17    36   1
    37    17    37   1
    38    17    38   1
@<TRIPOS>SUBSTRUCTURE
     1  AT1      2

