@<TRIPOS>MOLECULE
1vso_ligand_010
    38    38
SMALL
GAST_HUCK
****
This file was generated by PARSER (from files_GN.cpp)

@<TRIPOS>ATOM
      1 N          40.0945    6.7036    5.0443 N.4         1 AT1       0.2349
      2 C          38.7187    4.7827    5.8918 C.3         1 AT1       0.0583
      3 O          41.1917    4.1974    3.2003 O.co2       1 AT1      -0.5641
      4 C1         39.9764    5.2360    5.0753 C.3         1 AT1       0.0429
      5 C2         40.0540    4.7400    3.6833 C.2         1 AT1       0.0877
      6 O1         39.0564    5.0072    2.8119 O.co2       1 AT1      -0.5641
      7 O2         36.2387    3.0592    3.8108 O.3         1 AT1      -0.1588
      8 O3         36.4447    6.3857    4.8060 O.3         1 AT1      -0.2854
      9 N1         35.7553    4.2663    3.8536 N.2         1 AT1      -0.0623
     10 C3         38.1103    1.6485    4.5547 C.3         1 AT1      -0.0364
     11 C4         35.1656    6.9495    5.1600 C.3         1 AT1       0.1385
     12 C5         36.5331    5.0257    4.6385 C.2         1 AT1       0.2368
     13 C6         37.5851    4.2360    5.0990 C.2         1 AT1       0.0787
     14 C7         37.3688    2.9575    4.5553 C.2         1 AT1       0.1218
     15 C9         39.1907    1.4864    5.6723 C.3         1 AT1      -0.0985
     16 C10        37.0646    0.4976    4.7459 C.3         1 AT1      -0.0985
     17 C11        38.8150    1.4690    3.1640 C.3         1 AT1      -0.0985
     18 P          34.0297    6.9464    3.9461 P.3         1 AT1       0.0891
     19 O4         34.6620    7.0108    2.6494 O.co2       1 AT1      -0.5605
     20 O5         33.2274    5.7494    3.9808 O.co2       1 AT1      -0.5605
     21 O6         33.1324    8.0719    4.0575 O.co2       1 AT1      -0.5605
     22 H1         40.1150    7.0633    6.0049 H           1 AT1       0.2012
     23 H2         39.2853    7.0985    4.5541 H           1 AT1       0.2012
     24 H3         40.9638    6.9691    4.5600 H           1 AT1       0.2012
     25 H4         38.3508    5.6329    6.4787 H           1 AT1       0.0584
     26 H5         39.0202    4.0544    6.6420 H           1 AT1       0.0584
     27 H6         40.8648    4.8853    5.6165 H           1 AT1       0.1060
     28 H7         35.3733    7.9939    5.4062 H           1 AT1       0.0800
     29 H8         34.7544    6.4816    6.0629 H           1 AT1       0.0800
     30 H9         39.6662    0.4995    5.6112 H           1 AT1       0.0081
     31 H10        38.7336    1.5694    6.6656 H           1 AT1       0.0081
     32 H11        39.9809    2.2331    5.5749 H           1 AT1       0.0081
     33 H12        36.3112    0.5098    3.9469 H           1 AT1       0.0081
     34 H13        36.5464    0.6004    5.7075 H           1 AT1       0.0081
     35 H14        37.5615   -0.4737    4.7177 H           1 AT1       0.0081
     36 H15        39.5893    2.2310    3.0276 H           1 AT1       0.0081
     37 H16        38.0965    1.5567    2.3428 H           1 AT1       0.0081
     38 H17        39.2893    0.4834    3.1014 H           1 AT1       0.0081
@<TRIPOS>BOND
     1     4     1   1
     2     2     4   1
     3    13     2   1
     4     5     3  ar
     5     4     5   1
     6     5     6  ar
     7     9     7   1
     8     7    14   1
     9     8    11   1
    10    12     8   1
    11    12     9   2
    12    14    10   1
    13    10    15   1
    14    10    16   1
    15    10    17   1
    16    11    18   1
    17    12    13   1
    18    13    14   2
    19    18    19  ar
    20    18    20  ar
    21    18    21  ar
    22     1    22   1
    23     1    23   1
    24     1    24   1
    25     2    25   1
    26     2    26   1
    27     4    27   1
    28    11    28   1
    29    11    29   1
    30    15    30   1
    31    15    31   1
    32    15    32   1
    33    16    33   1
    34    16    34   1
    35    16    35   1
    36    17    36   1
    37    17    37   1
    38    17    38   1
@<TRIPOS>SUBSTRUCTURE
     1  AT1      2

