@<TRIPOS>MOLECULE
1vso_ligand_007
    38    38
SMALL
GAST_HUCK
****
This file was generated by PARSER (from files_GN.cpp)

@<TRIPOS>ATOM
      1 N          41.4811    5.0749    5.4357 N.4         1 AT1       0.2349
      2 C          39.0255    5.1632    5.8994 C.3         1 AT1       0.0583
      3 O          40.9055    4.4041    2.8640 O.co2       1 AT1      -0.5641
      4 C1         40.1955    4.3747    5.2320 C.3         1 AT1       0.0429
      5 C2         39.9591    4.1246    3.7928 C.2         1 AT1       0.0877
      6 O1         38.8154    3.5358    3.3832 O.co2       1 AT1      -0.5641
      7 O2         35.7800    3.4758    6.3043 O.3         1 AT1      -0.1588
      8 O3         38.8495    2.8269    7.7716 O.3         1 AT1      -0.2854
      9 N1         36.5427    2.7756    7.0914 N.2         1 AT1      -0.0623
     10 C3         35.8062    5.4541    4.7899 C.3         1 AT1      -0.0364
     11 C4         38.6932    2.7516    9.2054 C.3         1 AT1       0.1385
     12 C5         37.7769    3.2881    7.0602 C.2         1 AT1       0.2368
     13 C6         37.7984    4.3585    6.1634 C.2         1 AT1       0.0787
     14 C7         36.4777    4.4762    5.7094 C.2         1 AT1       0.1218
     15 C9         35.9287    6.9005    5.3663 C.3         1 AT1      -0.0985
     16 C10        36.4239    5.3500    3.3620 C.3         1 AT1      -0.0985
     17 C11        34.2748    5.1342    4.6660 C.3         1 AT1      -0.0985
     18 P          38.5502    4.2265    9.9558 P.3         1 AT1       0.0891
     19 O4         39.5179    5.1574    9.4254 O.co2       1 AT1      -0.5605
     20 O5         37.2296    4.7821    9.7841 O.co2       1 AT1      -0.5605
     21 O6         38.8031    4.0763   11.3688 O.co2       1 AT1      -0.5605
     22 H1         41.6424    5.2001    6.4395 H           1 AT1       0.2012
     23 H2         41.4937    5.9872    4.9667 H           1 AT1       0.2012
     24 H3         42.2394    4.4977    5.0615 H           1 AT1       0.2012
     25 H4         38.8035    6.0320    5.2817 H           1 AT1       0.0584
     26 H5         39.3683    5.5501    6.8638 H           1 AT1       0.0584
     27 H6         40.3164    3.4055    5.7183 H           1 AT1       0.1060
     28 H7         39.5963    2.2731    9.5901 H           1 AT1       0.0800
     29 H8         37.8461    2.1149    9.4778 H           1 AT1       0.0800
     30 H9         35.3994    7.6190    4.7326 H           1 AT1       0.0081
     31 H10        36.9662    7.2286    5.4309 H           1 AT1       0.0081
     32 H11        35.4990    6.9548    6.3705 H           1 AT1       0.0081
     33 H12        36.3182    4.3362    2.9663 H           1 AT1       0.0081
     34 H13        37.4864    5.5979    3.3556 H           1 AT1       0.0081
     35 H14        35.9191    6.0356    2.6745 H           1 AT1       0.0081
     36 H15        33.7857    5.1872    5.6395 H           1 AT1       0.0081
     37 H16        34.1200    4.1329    4.2618 H           1 AT1       0.0081
     38 H17        33.7768    5.8440    4.0029 H           1 AT1       0.0081
@<TRIPOS>BOND
     1     4     1   1
     2     2     4   1
     3    13     2   1
     4     5     3  ar
     5     4     5   1
     6     5     6  ar
     7     9     7   1
     8     7    14   1
     9     8    11   1
    10    12     8   1
    11    12     9   2
    12    14    10   1
    13    10    15   1
    14    10    16   1
    15    10    17   1
    16    11    18   1
    17    12    13   1
    18    13    14   2
    19    18    19  ar
    20    18    20  ar
    21    18    21  ar
    22     1    22   1
    23     1    23   1
    24     1    24   1
    25     2    25   1
    26     2    26   1
    27     4    27   1
    28    11    28   1
    29    11    29   1
    30    15    30   1
    31    15    31   1
    32    15    32   1
    33    16    33   1
    34    16    34   1
    35    16    35   1
    36    17    36   1
    37    17    37   1
    38    17    38   1
@<TRIPOS>SUBSTRUCTURE
     1  AT1      2

