@<TRIPOS>MOLECULE
1vso_ligand_006
    38    38
SMALL
GAST_HUCK
****
This file was generated by PARSER (from files_GN.cpp)

@<TRIPOS>ATOM
      1 N          41.6608    5.2263    5.3832 N.4         1 AT1       0.2349
      2 C          39.2429    5.4514    6.0061 C.3         1 AT1       0.0583
      3 O          40.9286    4.4149    2.8518 O.co2       1 AT1      -0.5641
      4 C1         40.3204    4.6312    5.2316 C.3         1 AT1       0.0429
      5 C2         39.9725    4.4565    3.8046 C.2         1 AT1       0.0877
      6 O1         38.7323    4.0329    3.4608 O.co2       1 AT1      -0.5641
      7 O2         39.4025    4.5556    9.5617 O.3         1 AT1      -0.1588
      8 O3         40.2917    7.5260    8.0765 O.3         1 AT1      -0.2854
      9 N1         39.9092    5.7448    9.5797 N.2         1 AT1      -0.0623
     10 C3         38.2489    2.9335    8.0571 C.3         1 AT1      -0.0364
     11 C4         39.2890    8.5662    8.1552 C.3         1 AT1       0.1385
     12 C5         39.8740    6.2534    8.3441 C.2         1 AT1       0.2368
     13 C6         39.3607    5.2883    7.4772 C.2         1 AT1       0.0787
     14 C7         39.0164    4.2076    8.3058 C.2         1 AT1       0.1218
     15 C9         38.5025    1.9070    9.2134 C.3         1 AT1      -0.0985
     16 C10        36.7257    3.2723    8.0372 C.3         1 AT1      -0.0985
     17 C11        38.6564    2.2364    6.7237 C.3         1 AT1      -0.0985
     18 P          38.2102    8.5116    9.4322 P.3         1 AT1       0.0891
     19 O4         37.1312    7.6078    9.1075 O.co2       1 AT1      -0.5605
     20 O5         38.8343    8.0506   10.6493 O.co2       1 AT1      -0.5605
     21 O6         37.6415    9.8121    9.6685 O.co2       1 AT1      -0.5605
     22 H1         41.8612    5.3646    6.3730 H           1 AT1       0.2012
     23 H2         41.7319    6.1195    4.8849 H           1 AT1       0.2012
     24 H3         42.3555    4.5767    5.0039 H           1 AT1       0.2012
     25 H4         38.2365    5.1601    5.7043 H           1 AT1       0.0584
     26 H5         39.3489    6.5036    5.7263 H           1 AT1       0.0584
     27 H6         40.3876    3.6307    5.6544 H           1 AT1       0.1060
     28 H7         38.7172    8.6143    7.2274 H           1 AT1       0.0800
     29 H8         39.8354    9.5051    8.2427 H           1 AT1       0.0800
     30 H9         37.9307    0.9883    9.0609 H           1 AT1       0.0081
     31 H10        38.2074    2.3220   10.1847 H           1 AT1       0.0081
     32 H11        39.5640    1.6421    9.2659 H           1 AT1       0.0081
     33 H12        36.4749    3.9389    7.2134 H           1 AT1       0.0081
     34 H13        36.4217    3.7545    8.9702 H           1 AT1       0.0081
     35 H14        36.1299    2.3598    7.9181 H           1 AT1       0.0081
     36 H15        39.7369    2.0690    6.6922 H           1 AT1       0.0081
     37 H16        38.3608    2.8276    5.8604 H           1 AT1       0.0081
     38 H17        38.1554    1.2660    6.6297 H           1 AT1       0.0081
@<TRIPOS>BOND
     1     4     1   1
     2     2     4   1
     3    13     2   1
     4     5     3  ar
     5     4     5   1
     6     5     6  ar
     7     9     7   1
     8     7    14   1
     9     8    11   1
    10    12     8   1
    11    12     9   2
    12    14    10   1
    13    10    15   1
    14    10    16   1
    15    10    17   1
    16    11    18   1
    17    12    13   1
    18    13    14   2
    19    18    19  ar
    20    18    20  ar
    21    18    21  ar
    22     1    22   1
    23     1    23   1
    24     1    24   1
    25     2    25   1
    26     2    26   1
    27     4    27   1
    28    11    28   1
    29    11    29   1
    30    15    30   1
    31    15    31   1
    32    15    32   1
    33    16    33   1
    34    16    34   1
    35    16    35   1
    36    17    36   1
    37    17    37   1
    38    17    38   1
@<TRIPOS>SUBSTRUCTURE
     1  AT1      2

