@<TRIPOS>MOLECULE
1vso_ligand_003
    38    38
SMALL
GAST_HUCK
****
This file was generated by PARSER (from files_GN.cpp)

@<TRIPOS>ATOM
      1 N          41.6513    5.2090    5.3628 N.4         1 AT1       0.2349
      2 C          39.5434    6.4836    5.5645 C.3         1 AT1       0.0583
      3 O          38.6661    4.6762    3.2375 O.co2       1 AT1      -0.5641
      4 C1         40.2060    5.1515    5.0928 C.3         1 AT1       0.0429
      5 C2         39.9359    4.8492    3.6700 C.2         1 AT1       0.0877
      6 O1         40.9279    4.4961    2.8258 O.co2       1 AT1      -0.5641
      7 O2         39.2164    6.8519    9.2158 O.3         1 AT1      -0.1588
      8 O3         37.3205    5.0489    6.9683 O.3         1 AT1      -0.2854
      9 N1         38.2240    6.0641    8.9274 N.2         1 AT1      -0.0623
     10 C3         41.1085    8.1103    8.2943 C.3         1 AT1      -0.0364
     11 C4         36.1333    5.7077    6.4772 C.3         1 AT1       0.1385
     12 C5         38.2270    5.8491    7.6084 C.2         1 AT1       0.2368
     13 C6         39.3070    6.5262    7.0353 C.2         1 AT1       0.0787
     14 C7         39.9386    7.1787    8.1122 C.2         1 AT1       0.1218
     15 C9         40.5272    9.5337    8.5656 C.3         1 AT1      -0.0985
     16 C10        41.9389    7.6449    9.5404 C.3         1 AT1      -0.0985
     17 C11        42.0944    8.1993    7.0903 C.3         1 AT1      -0.0985
     18 P          34.9301    5.8641    7.6148 P.3         1 AT1       0.0891
     19 O4         34.7928    4.6585    8.3897 O.co2       1 AT1      -0.5605
     20 O5         35.1854    6.9721    8.4991 O.co2       1 AT1      -0.5605
     21 O6         33.6721    6.1033    6.9560 O.co2       1 AT1      -0.5605
     22 H1         41.7953    5.2750    6.3682 H           1 AT1       0.2012
     23 H2         42.0541    6.0285    4.9040 H           1 AT1       0.2012
     24 H3         42.1204    4.3714    5.0206 H           1 AT1       0.2012
     25 H4         38.5770    6.6127    5.0692 H           1 AT1       0.0584
     26 H5         40.1402    7.3290    5.2359 H           1 AT1       0.0584
     27 H6         39.8044    4.3115    5.6642 H           1 AT1       0.1060
     28 H7         35.7439    5.0740    5.6794 H           1 AT1       0.0800
     29 H8         36.3460    6.6861    6.0351 H           1 AT1       0.0800
     30 H9         41.3265   10.2619    8.7210 H           1 AT1       0.0081
     31 H10        39.8902    9.5393    9.4535 H           1 AT1       0.0081
     32 H11        39.9259    9.8664    7.7168 H           1 AT1       0.0081
     33 H12        42.2997    6.6223    9.4067 H           1 AT1       0.0081
     34 H13        41.3363    7.6697   10.4498 H           1 AT1       0.0081
     35 H14        42.8032    8.2922    9.7081 H           1 AT1       0.0081
     36 H15        41.6281    8.6706    6.2282 H           1 AT1       0.0081
     37 H16        42.4538    7.2126    6.8136 H           1 AT1       0.0081
     38 H17        42.9692    8.8001    7.3475 H           1 AT1       0.0081
@<TRIPOS>BOND
     1     4     1   1
     2     2     4   1
     3    13     2   1
     4     5     3  ar
     5     4     5   1
     6     5     6  ar
     7     9     7   1
     8     7    14   1
     9     8    11   1
    10    12     8   1
    11    12     9   2
    12    14    10   1
    13    10    15   1
    14    10    16   1
    15    10    17   1
    16    11    18   1
    17    12    13   1
    18    13    14   2
    19    18    19  ar
    20    18    20  ar
    21    18    21  ar
    22     1    22   1
    23     1    23   1
    24     1    24   1
    25     2    25   1
    26     2    26   1
    27     4    27   1
    28    11    28   1
    29    11    29   1
    30    15    30   1
    31    15    31   1
    32    15    32   1
    33    16    33   1
    34    16    34   1
    35    16    35   1
    36    17    36   1
    37    17    37   1
    38    17    38   1
@<TRIPOS>SUBSTRUCTURE
     1  AT1      2

