@<TRIPOS>MOLECULE
1w3k_ligand_024
    43    44
SMALL
GAST_HUCK
****
This file was generated by PARSER (from files_GN.cpp)

@<TRIPOS>ATOM
      1 C2         59.6978   47.0266   36.8388 C.3         1 BGC       0.1341
      2 C3         58.9705   48.2603   37.4514 C.3         1 BGC       0.1141
      3 C4         57.4540   48.2395   37.1089 C.3         1 BGC       0.1119
      4 C5         56.8204   46.8653   37.4796 C.3         1 BGC       0.1130
      5 C6         55.3600   46.7343   36.9782 C.3         1 BGC       0.0730
      6 C1         58.9710   45.7145   37.2625 C.3         1 BGC       0.1884
      7 O2         61.0730   47.0118   37.2261 O.3         1 BGC      -0.3841
      8 O3         59.5574   49.4892   37.0114 O.3         1 BGC      -0.3864
      9 O4         56.7846   49.2991   37.7903 O.3         1 BGC      -0.3865
     10 O5         57.5792   45.7848   36.8956 O.3         1 BGC      -0.3405
     11 O6         54.8112   45.4658   37.3268 O.3         1 BGC      -0.3924
     12 C6         61.8784   44.1397   34.8620 C.3         1 BGC       0.0782
     13 C5         61.2646   43.1149   35.8637 C.3         1 BGC       0.1538
     14 C4         60.5347   43.7678   37.0805 C.3         1 BGC       0.1259
     15 C3         60.0464   42.6383   38.0443 C.3         1 BGC       0.1245
     16 C2         61.2221   41.6890   38.3905 C.3         1 BGC       0.0256
     17 O6         61.5824   43.7907   33.5116 O.3         1 BGC      -0.3922
     18 O5         62.3172   42.2548   36.3555 O.3         1 BGC      -0.3215
     19 O4         59.4437   44.5554   36.5501 O.3         1 BGC      -0.3398
     20 O3         59.4944   43.1497   39.2565 O.3         1 BGC      -0.3838
     21 N1         61.8656   41.2256   37.1439 N.4         1 BGC       0.3939
     22 H1         59.6683   47.1070   35.7492 H           1 BGC       0.0671
     23 H2         59.0831   48.2279   38.5404 H           1 BGC       0.0648
     24 H3         57.3340   48.4082   36.0361 H           1 BGC       0.0647
     25 H4         56.8162   46.7527   38.5691 H           1 BGC       0.0647
     26 H5         55.3272   46.8324   35.8929 H           1 BGC       0.0584
     27 H6         54.7337   47.5154   37.4118 H           1 BGC       0.0584
     28 H7         59.0512   45.5798   38.3446 H           1 BGC       0.0938
     29 H8         61.0786   46.9447   38.2041 H           1 BGC       0.2101
     30 H9         59.4234   49.5251   36.0415 H           1 BGC       0.2100
     31 H10        56.9180   49.1184   38.7446 H           1 BGC       0.2100
     32 H11        54.8699   45.4142   38.3045 H           1 BGC       0.2095
     33 H12        62.9639   44.1946   34.9741 H           1 BGC       0.0586
     34 H13        61.4808   45.1408   35.0239 H           1 BGC       0.0586
     35 H14        60.5360   42.5035   35.3182 H           1 BGC       0.0702
     36 H15        61.2533   44.3954   37.6157 H           1 BGC       0.0654
     37 H16        59.2681   42.0514   37.5477 H           1 BGC       0.0674
     38 H17        60.8588   40.8184   38.9410 H           1 BGC       0.0850
     39 H18        61.9555   42.2092   39.0134 H           1 BGC       0.0850
     40 H19        62.0532   42.9487   33.3447 H           1 BGC       0.2095
     41 H20        58.6936   43.6439   38.9872 H           1 BGC       0.2101
     42 H21        61.1992   40.6593   36.6131 H           1 BGC       0.2348
     43 H22        62.6637   40.6374   37.3907 H           1 BGC       0.2348
@<TRIPOS>BOND
     1     1     2   1
     2     6     1   1
     3     1     7   1
     4     2     3   1
     5     2     8   1
     6     4     3   1
     7     3     9   1
     8     4     5   1
     9    10     4   1
    10     5    11   1
    11     6    10   1
    12    19     6   1
    13    13    12   1
    14    12    17   1
    15    14    13   1
    16    13    18   1
    17    14    15   1
    18    14    19   1
    19    15    16   1
    20    15    20   1
    21    16    21   1
    22    18    21   1
    23     1    22   1
    24     2    23   1
    25     3    24   1
    26     4    25   1
    27     5    26   1
    28     5    27   1
    29     6    28   1
    30     7    29   1
    31     8    30   1
    32     9    31   1
    33    11    32   1
    34    12    33   1
    35    12    34   1
    36    13    35   1
    37    14    36   1
    38    15    37   1
    39    16    38   1
    40    16    39   1
    41    17    40   1
    42    20    41   1
    43    21    42   1
    44    21    43   1
@<TRIPOS>SUBSTRUCTURE
     1  BGC      1

