@<TRIPOS>MOLECULE
1w3k_ligand_017
    43    44
SMALL
GAST_HUCK
****
This file was generated by PARSER (from files_GN.cpp)

@<TRIPOS>ATOM
      1 C2         59.9774   46.0939   36.3700 C.3         1 BGC       0.1341
      2 C3         60.3432   47.5961   36.2185 C.3         1 BGC       0.1141
      3 C4         60.1467   48.3566   37.5590 C.3         1 BGC       0.1119
      4 C5         60.8878   47.6096   38.7164 C.3         1 BGC       0.1130
      5 C6         60.5961   48.2237   40.1132 C.3         1 BGC       0.0730
      6 C1         60.7572   45.4611   37.5506 C.3         1 BGC       0.1884
      7 O2         60.2425   45.3810   35.1580 O.3         1 BGC      -0.3841
      8 O3         59.5501   48.1912   35.1814 O.3         1 BGC      -0.3864
      9 O4         60.5976   49.7072   37.4024 O.3         1 BGC      -0.3865
     10 O5         60.5032   46.2085   38.7608 O.3         1 BGC      -0.3405
     11 O6         61.2616   49.4699   40.3147 O.3         1 BGC      -0.3924
     12 C6         63.0326   43.1588   36.4641 C.3         1 BGC       0.0782
     13 C5         61.8963   42.3426   37.1403 C.3         1 BGC       0.1538
     14 C4         61.1202   43.1087   38.2654 C.3         1 BGC       0.1259
     15 C3         60.1978   42.1233   39.0472 C.3         1 BGC       0.1245
     16 C2         60.9549   40.8269   39.4267 C.3         1 BGC       0.0256
     17 O6         62.5934   43.8071   35.2679 O.3         1 BGC      -0.3922
     18 O5         62.5152   41.1605   37.6913 O.3         1 BGC      -0.3215
     19 O4         60.2649   44.1145   37.6859 O.3         1 BGC      -0.3398
     20 O3         59.6888   42.7294   40.2401 O.3         1 BGC      -0.3838
     21 N1         61.6205   40.2781   38.2312 N.4         1 BGC       0.3939
     22 H1         58.9059   46.0160   36.5743 H           1 BGC       0.0671
     23 H2         61.3934   47.6823   35.9161 H           1 BGC       0.0648
     24 H3         59.0756   48.3968   37.7832 H           1 BGC       0.0647
     25 H4         61.9660   47.6846   38.5429 H           1 BGC       0.0647
     26 H5         60.9510   47.5401   40.8888 H           1 BGC       0.0584
     27 H6         59.5190   48.3659   40.2533 H           1 BGC       0.0584
     28 H7         61.8288   45.4623   37.3190 H           1 BGC       0.0938
     29 H8         61.2015   45.4856   34.9998 H           1 BGC       0.2101
     30 H9         58.7794   47.5853   35.0547 H           1 BGC       0.2100
     31 H10        61.5729   49.7010   37.5389 H           1 BGC       0.2100
     32 H11        60.7831   50.1158   39.7519 H           1 BGC       0.2095
     33 H12        63.8552   42.4870   36.2038 H           1 BGC       0.0586
     34 H13        63.4195   43.9116   37.1511 H           1 BGC       0.0586
     35 H14        61.1915   42.0326   36.3612 H           1 BGC       0.0702
     36 H15        61.8399   43.5295   38.9765 H           1 BGC       0.0654
     37 H16        59.3440   41.8469   38.4157 H           1 BGC       0.0674
     38 H17        60.2532   40.0841   39.8175 H           1 BGC       0.0850
     39 H18        61.7057   41.0341   40.1977 H           1 BGC       0.0850
     40 H19        62.8304   43.1762   34.5453 H           1 BGC       0.2095
     41 H20        59.0715   43.4301   39.9274 H           1 BGC       0.2101
     42 H21        60.9238   40.0401   37.5219 H           1 BGC       0.2348
     43 H22        62.1244   39.4298   38.4959 H           1 BGC       0.2348
@<TRIPOS>BOND
     1     1     2   1
     2     6     1   1
     3     1     7   1
     4     2     3   1
     5     2     8   1
     6     4     3   1
     7     3     9   1
     8     4     5   1
     9    10     4   1
    10     5    11   1
    11     6    10   1
    12    19     6   1
    13    13    12   1
    14    12    17   1
    15    14    13   1
    16    13    18   1
    17    14    15   1
    18    14    19   1
    19    15    16   1
    20    15    20   1
    21    16    21   1
    22    18    21   1
    23     1    22   1
    24     2    23   1
    25     3    24   1
    26     4    25   1
    27     5    26   1
    28     5    27   1
    29     6    28   1
    30     7    29   1
    31     8    30   1
    32     9    31   1
    33    11    32   1
    34    12    33   1
    35    12    34   1
    36    13    35   1
    37    14    36   1
    38    15    37   1
    39    16    38   1
    40    16    39   1
    41    17    40   1
    42    20    41   1
    43    21    42   1
    44    21    43   1
@<TRIPOS>SUBSTRUCTURE
     1  BGC      1

