@<TRIPOS>MOLECULE
1w3k_ligand_019
    43    44
SMALL
GAST_HUCK
****
This file was generated by PARSER (from files_GN.cpp)

@<TRIPOS>ATOM
      1 C2         62.2270   40.8001   38.1182 C.3         1 BGC       0.1341
      2 C3         62.9933   40.5263   36.7965 C.3         1 BGC       0.1141
      3 C4         64.0360   39.3840   36.9723 C.3         1 BGC       0.1119
      4 C5         63.3592   38.1177   37.5822 C.3         1 BGC       0.1130
      5 C6         64.3617   36.9830   37.9173 C.3         1 BGC       0.0730
      6 C1         61.6623   39.4737   38.7072 C.3         1 BGC       0.1884
      7 O2         61.1541   41.7166   37.8939 O.3         1 BGC      -0.3841
      8 O3         63.6286   41.7222   36.3451 O.3         1 BGC      -0.3864
      9 O4         64.6655   39.0934   35.7226 O.3         1 BGC      -0.3865
     10 O5         62.6926   38.4677   38.8148 O.3         1 BGC      -0.3405
     11 O6         64.9911   36.4628   36.7504 O.3         1 BGC      -0.3924
     12 C6         62.3258   37.8566   42.1296 C.3         1 BGC       0.0782
     13 C5         61.6043   39.2097   42.3346 C.3         1 BGC       0.1538
     14 C4         61.7169   40.1774   41.1131 C.3         1 BGC       0.1259
     15 C3         61.0885   41.5479   41.4947 C.3         1 BGC       0.1245
     16 C2         61.6729   42.0612   42.8332 C.3         1 BGC       0.0256
     17 O6         63.7447   37.9803   42.2204 O.3         1 BGC      -0.3922
     18 O5         62.1639   39.8367   43.5088 O.3         1 BGC      -0.3215
     19 O4         60.9954   39.6476   39.9764 O.3         1 BGC      -0.3398
     20 O3         61.2791   42.5215   40.4706 O.3         1 BGC      -0.3838
     21 N1         61.5334   41.0043   43.8560 N.4         1 BGC       0.3939
     22 H1         62.9187   41.2512   38.8314 H           1 BGC       0.0671
     23 H2         62.2688   40.2378   36.0331 H           1 BGC       0.0648
     24 H3         64.8119   39.7271   37.6619 H           1 BGC       0.0647
     25 H4         62.6252   37.7160   36.8726 H           1 BGC       0.0647
     26 H5         63.8383   36.1589   38.4098 H           1 BGC       0.0584
     27 H6         65.1335   37.3504   38.5966 H           1 BGC       0.0584
     28 H7         60.8909   39.1015   38.0271 H           1 BGC       0.0938
     29 H8         61.5845   42.5696   37.6708 H           1 BGC       0.2101
     30 H9         63.5894   41.6768   35.3663 H           1 BGC       0.2100
     31 H10        63.9360   38.8468   35.1161 H           1 BGC       0.2100
     32 H11        64.3350   35.8441   36.3619 H           1 BGC       0.2095
     33 H12        62.0761   37.4446   41.1515 H           1 BGC       0.0586
     34 H13        61.9894   37.1438   42.8874 H           1 BGC       0.0586
     35 H14        60.5460   38.9903   42.5209 H           1 BGC       0.0702
     36 H15        62.7789   40.3359   40.8969 H           1 BGC       0.0654
     37 H16        60.0095   41.4200   41.6169 H           1 BGC       0.0674
     38 H17        61.1329   42.9508   43.1617 H           1 BGC       0.0850
     39 H18        62.7303   42.3213   42.7134 H           1 BGC       0.0850
     40 H19        63.9210   38.3012   43.1312 H           1 BGC       0.2095
     41 H20        62.2482   42.6559   40.4041 H           1 BGC       0.2101
     42 H21        60.5408   40.8129   44.0033 H           1 BGC       0.2348
     43 H22        61.9351   41.3433   44.7337 H           1 BGC       0.2348
@<TRIPOS>BOND
     1     1     2   1
     2     6     1   1
     3     1     7   1
     4     2     3   1
     5     2     8   1
     6     4     3   1
     7     3     9   1
     8     4     5   1
     9    10     4   1
    10     5    11   1
    11     6    10   1
    12    19     6   1
    13    13    12   1
    14    12    17   1
    15    14    13   1
    16    13    18   1
    17    14    15   1
    18    14    19   1
    19    15    16   1
    20    15    20   1
    21    16    21   1
    22    18    21   1
    23     1    22   1
    24     2    23   1
    25     3    24   1
    26     4    25   1
    27     5    26   1
    28     5    27   1
    29     6    28   1
    30     7    29   1
    31     8    30   1
    32     9    31   1
    33    11    32   1
    34    12    33   1
    35    12    34   1
    36    13    35   1
    37    14    36   1
    38    15    37   1
    39    16    38   1
    40    16    39   1
    41    17    40   1
    42    20    41   1
    43    21    42   1
    44    21    43   1
@<TRIPOS>SUBSTRUCTURE
     1  BGC      1

