@<TRIPOS>MOLECULE
1w3k_ligand_008
    43    44
SMALL
GAST_HUCK
****
This file was generated by PARSER (from files_GN.cpp)

@<TRIPOS>ATOM
      1 C2         61.7312   47.3920   36.7147 C.3         1 BGC       0.1341
      2 C3         60.8517   48.2014   37.7063 C.3         1 BGC       0.1141
      3 C4         59.4302   47.5906   37.8193 C.3         1 BGC       0.1119
      4 C5         59.5212   46.0642   38.1372 C.3         1 BGC       0.1130
      5 C6         58.1652   45.3182   38.0744 C.3         1 BGC       0.0730
      6 C1         61.7195   45.8713   37.0497 C.3         1 BGC       0.1884
      7 O2         63.0781   47.8629   36.7435 O.3         1 BGC      -0.3841
      8 O3         60.7384   49.5628   37.2870 O.3         1 BGC      -0.3864
      9 O4         58.7026   48.2836   38.8349 O.3         1 BGC      -0.3865
     10 O5         60.3633   45.4103   37.1645 O.3         1 BGC      -0.3405
     11 O6         57.1811   45.8714   38.9349 O.3         1 BGC      -0.3924
     12 C6         60.9633   42.2059   34.1475 C.3         1 BGC       0.0782
     13 C5         60.9259   43.2992   35.2413 C.3         1 BGC       0.1538
     14 C4         62.3429   43.7848   35.7038 C.3         1 BGC       0.1259
     15 C3         62.9423   42.8668   36.8108 C.3         1 BGC       0.1245
     16 C2         61.8862   42.4515   37.8671 C.3         1 BGC       0.0256
     17 O6         59.6707   41.6539   33.9698 O.3         1 BGC      -0.3922
     18 O5         60.1061   42.8899   36.3663 O.3         1 BGC      -0.3215
     19 O4         62.4022   45.2076   35.9716 O.3         1 BGC      -0.3398
     20 O3         63.4717   41.6545   36.2547 O.3         1 BGC      -0.3838
     21 N1         60.6689   41.9477   37.1893 N.4         1 BGC       0.3939
     22 H1         61.3392   47.5310   35.6971 H           1 BGC       0.0671
     23 H2         61.3226   48.1894   38.6908 H           1 BGC       0.0648
     24 H3         58.8992   47.7212   36.8688 H           1 BGC       0.0647
     25 H4         59.9420   45.9313   39.1410 H           1 BGC       0.0647
     26 H5         58.3256   44.2806   38.3712 H           1 BGC       0.0584
     27 H6         57.7841   45.3313   37.0520 H           1 BGC       0.0584
     28 H7         62.2618   45.6960   37.9806 H           1 BGC       0.0938
     29 H8         63.0646   48.7203   36.2675 H           1 BGC       0.2101
     30 H9         61.6543   49.8933   37.1895 H           1 BGC       0.2100
     31 H10        58.3823   49.1084   38.4046 H           1 BGC       0.2100
     32 H11        56.9521   46.7383   38.5419 H           1 BGC       0.2095
     33 H12        61.6499   41.4019   34.4081 H           1 BGC       0.0586
     34 H13        61.2781   42.6452   33.2037 H           1 BGC       0.0586
     35 H14        60.4137   44.1608   34.7977 H           1 BGC       0.0702
     36 H15        63.0063   43.7120   34.8379 H           1 BGC       0.0654
     37 H16        63.7716   43.3874   37.3021 H           1 BGC       0.0674
     38 H17        61.6223   43.2977   38.4961 H           1 BGC       0.0850
     39 H18        62.2842   41.6653   38.5081 H           1 BGC       0.0850
     40 H19        59.1486   42.3596   33.5431 H           1 BGC       0.2095
     41 H20        63.4441   41.7570   35.2770 H           1 BGC       0.2101
     42 H21        59.9817   41.7141   37.9074 H           1 BGC       0.2348
     43 H22        60.8778   41.0935   36.6592 H           1 BGC       0.2348
@<TRIPOS>BOND
     1     1     2   1
     2     6     1   1
     3     1     7   1
     4     2     3   1
     5     2     8   1
     6     4     3   1
     7     3     9   1
     8     4     5   1
     9    10     4   1
    10     5    11   1
    11     6    10   1
    12    19     6   1
    13    13    12   1
    14    12    17   1
    15    14    13   1
    16    13    18   1
    17    14    15   1
    18    14    19   1
    19    15    16   1
    20    15    20   1
    21    16    21   1
    22    18    21   1
    23     1    22   1
    24     2    23   1
    25     3    24   1
    26     4    25   1
    27     5    26   1
    28     5    27   1
    29     6    28   1
    30     7    29   1
    31     8    30   1
    32     9    31   1
    33    11    32   1
    34    12    33   1
    35    12    34   1
    36    13    35   1
    37    14    36   1
    38    15    37   1
    39    16    38   1
    40    16    39   1
    41    17    40   1
    42    20    41   1
    43    21    42   1
    44    21    43   1
@<TRIPOS>SUBSTRUCTURE
     1  BGC      1

