@<TRIPOS>MOLECULE
1w3k_ligand_025
    43    44
SMALL
GAST_HUCK
****
This file was generated by PARSER (from files_GN.cpp)

@<TRIPOS>ATOM
      1 C2         60.0737   44.6573   36.4296 C.3         1 BGC       0.1341
      2 C3         59.9236   43.7595   35.1718 C.3         1 BGC       0.1141
      3 C4         61.1280   42.7944   35.0365 C.3         1 BGC       0.1119
      4 C5         61.3632   42.0135   36.3644 C.3         1 BGC       0.1130
      5 C6         62.6919   41.2143   36.3349 C.3         1 BGC       0.0730
      6 C1         60.2703   43.7677   37.6839 C.3         1 BGC       0.1884
      7 O2         58.9316   45.4992   36.5953 O.3         1 BGC      -0.3841
      8 O3         59.8176   44.5785   34.0107 O.3         1 BGC      -0.3864
      9 O4         60.8600   41.8829   33.9709 O.3         1 BGC      -0.3865
     10 O5         61.4097   42.9027   37.5017 O.3         1 BGC      -0.3405
     11 O6         62.6580   40.1520   37.2839 O.3         1 BGC      -0.3924
     12 C6         59.7986   46.9207   40.5986 C.3         1 BGC       0.0782
     13 C5         60.3248   45.5329   41.0464 C.3         1 BGC       0.1538
     14 C4         59.9238   44.3698   40.0796 C.3         1 BGC       0.1259
     15 C3         60.3288   43.0034   40.7163 C.3         1 BGC       0.1245
     16 C2         59.8746   42.9200   42.1969 C.3         1 BGC       0.0256
     17 O6         60.4195   47.3711   39.3981 O.3         1 BGC      -0.3922
     18 O5         59.8078   45.2790   42.3711 O.3         1 BGC      -0.3215
     19 O4         60.5671   44.6158   38.8092 O.3         1 BGC      -0.3398
     20 O3         59.7768   41.8901   40.0139 O.3         1 BGC      -0.3838
     21 N1         60.3132   44.1275   42.9208 N.4         1 BGC       0.3939
     22 H1         60.9462   45.3055   36.3041 H           1 BGC       0.0671
     23 H2         59.0028   43.1756   35.2546 H           1 BGC       0.0648
     24 H3         62.0237   43.3772   34.7900 H           1 BGC       0.0647
     25 H4         60.5379   41.3098   36.5075 H           1 BGC       0.0647
     26 H5         63.5348   41.8692   36.5736 H           1 BGC       0.0584
     27 H6         62.8699   40.7813   35.3500 H           1 BGC       0.0584
     28 H7         59.3622   43.1754   37.8367 H           1 BGC       0.0938
     29 H8         58.2065   44.9094   36.8935 H           1 BGC       0.2101
     30 H9         59.4692   43.9909   33.3116 H           1 BGC       0.2100
     31 H10        61.6643   41.9036   33.4094 H           1 BGC       0.2100
     32 H11        61.9157   39.5861   36.9826 H           1 BGC       0.2095
     33 H12        60.0031   47.6596   41.3796 H           1 BGC       0.0586
     34 H13        58.7188   46.8843   40.4423 H           1 BGC       0.0586
     35 H14        61.4176   45.5963   41.1075 H           1 BGC       0.0702
     36 H15        58.8366   44.3957   39.9517 H           1 BGC       0.0654
     37 H16        61.4210   42.9084   40.6819 H           1 BGC       0.0674
     38 H17        60.3142   42.0389   42.6704 H           1 BGC       0.0850
     39 H18        58.7861   42.8401   42.2539 H           1 BGC       0.0850
     40 H19        61.3833   47.3163   39.5710 H           1 BGC       0.2095
     41 H20        58.8112   42.0521   39.9874 H           1 BGC       0.2101
     42 H21        61.3364   44.1685   42.9165 H           1 BGC       0.2348
     43 H22        59.9928   44.0603   43.8885 H           1 BGC       0.2348
@<TRIPOS>BOND
     1     1     2   1
     2     6     1   1
     3     1     7   1
     4     2     3   1
     5     2     8   1
     6     4     3   1
     7     3     9   1
     8     4     5   1
     9    10     4   1
    10     5    11   1
    11     6    10   1
    12    19     6   1
    13    13    12   1
    14    12    17   1
    15    14    13   1
    16    13    18   1
    17    14    15   1
    18    14    19   1
    19    15    16   1
    20    15    20   1
    21    16    21   1
    22    18    21   1
    23     1    22   1
    24     2    23   1
    25     3    24   1
    26     4    25   1
    27     5    26   1
    28     5    27   1
    29     6    28   1
    30     7    29   1
    31     8    30   1
    32     9    31   1
    33    11    32   1
    34    12    33   1
    35    12    34   1
    36    13    35   1
    37    14    36   1
    38    15    37   1
    39    16    38   1
    40    16    39   1
    41    17    40   1
    42    20    41   1
    43    21    42   1
    44    21    43   1
@<TRIPOS>SUBSTRUCTURE
     1  BGC      1

