@<TRIPOS>MOLECULE
1w3k_ligand_002
    43    44
SMALL
GAST_HUCK
****
This file was generated by PARSER (from files_GN.cpp)

@<TRIPOS>ATOM
      1 C2         60.2717   43.6298   35.1027 C.3         1 BGC       0.1341
      2 C3         60.8029   42.1788   35.2891 C.3         1 BGC       0.1141
      3 C4         62.2437   42.2024   35.8879 C.3         1 BGC       0.1119
      4 C5         62.3333   43.1403   37.1408 C.3         1 BGC       0.1130
      5 C6         63.7915   43.4497   37.5858 C.3         1 BGC       0.0730
      6 C1         60.3427   44.3665   36.4609 C.3         1 BGC       0.1884
      7 O2         58.9246   43.6419   34.6357 O.3         1 BGC      -0.3841
      8 O3         60.7461   41.4674   34.0485 O.3         1 BGC      -0.3864
      9 O4         62.6503   40.8851   36.2611 O.3         1 BGC      -0.3865
     10 O5         61.7169   44.4248   36.8858 O.3         1 BGC      -0.3405
     11 O6         64.5818   42.2870   37.8556 O.3         1 BGC      -0.3924
     12 C6         60.6917   48.5194   36.2862 C.3         1 BGC       0.0782
     13 C5         60.6542   47.6522   37.5787 C.3         1 BGC       0.1538
     14 C4         59.5752   46.5262   37.5021 C.3         1 BGC       0.1259
     15 C3         59.4141   45.8274   38.8903 C.3         1 BGC       0.1245
     16 C2         59.2903   46.8740   40.0261 C.3         1 BGC       0.0256
     17 O6         60.7669   49.9152   36.5633 O.3         1 BGC      -0.3922
     18 O5         60.3722   48.5110   38.7086 O.3         1 BGC      -0.3215
     19 O4         59.7763   45.6818   36.3401 O.3         1 BGC      -0.3398
     20 O3         58.2703   44.9714   38.8968 O.3         1 BGC      -0.3838
     21 N1         60.3932   47.8474   39.9080 N.4         1 BGC       0.3939
     22 H1         60.8874   44.1561   34.3668 H           1 BGC       0.0671
     23 H2         60.1381   41.6457   35.9794 H           1 BGC       0.0648
     24 H3         62.9253   42.5755   35.1222 H           1 BGC       0.0647
     25 H4         61.8202   42.6644   37.9868 H           1 BGC       0.0647
     26 H5         63.7684   44.0380   38.5097 H           1 BGC       0.0584
     27 H6         64.2884   44.0533   36.8205 H           1 BGC       0.0584
     28 H7         59.7410   43.8068   37.1821 H           1 BGC       0.0938
     29 H8         58.9178   43.0827   33.8253 H           1 BGC       0.2101
     30 H9         61.5602   41.7056   33.5459 H           1 BGC       0.2100
     31 H10        62.5235   40.3144   35.4672 H           1 BGC       0.2100
     32 H11        64.0251   41.5213   37.5944 H           1 BGC       0.2095
     33 H12        59.7894   48.3725   35.6833 H           1 BGC       0.0586
     34 H13        61.5512   48.2412   35.6692 H           1 BGC       0.0586
     35 H14        61.6440   47.2030   37.7211 H           1 BGC       0.0702
     36 H15        58.6224   47.0285   37.3086 H           1 BGC       0.0654
     37 H16        60.2971   45.2157   39.0969 H           1 BGC       0.0674
     38 H17        59.3489   46.3807   40.9973 H           1 BGC       0.0850
     39 H18        58.3346   47.4007   39.9567 H           1 BGC       0.0850
     40 H19        61.7101   50.1171   36.7136 H           1 BGC       0.2095
     41 H20        57.5051   45.5522   38.6824 H           1 BGC       0.2101
     42 H21        61.2911   47.3646   40.0173 H           1 BGC       0.2348
     43 H22        60.2995   48.5339   40.6587 H           1 BGC       0.2348
@<TRIPOS>BOND
     1     1     2   1
     2     6     1   1
     3     1     7   1
     4     2     3   1
     5     2     8   1
     6     4     3   1
     7     3     9   1
     8     4     5   1
     9    10     4   1
    10     5    11   1
    11     6    10   1
    12    19     6   1
    13    13    12   1
    14    12    17   1
    15    14    13   1
    16    13    18   1
    17    14    15   1
    18    14    19   1
    19    15    16   1
    20    15    20   1
    21    16    21   1
    22    18    21   1
    23     1    22   1
    24     2    23   1
    25     3    24   1
    26     4    25   1
    27     5    26   1
    28     5    27   1
    29     6    28   1
    30     7    29   1
    31     8    30   1
    32     9    31   1
    33    11    32   1
    34    12    33   1
    35    12    34   1
    36    13    35   1
    37    14    36   1
    38    15    37   1
    39    16    38   1
    40    16    39   1
    41    17    40   1
    42    20    41   1
    43    21    42   1
    44    21    43   1
@<TRIPOS>SUBSTRUCTURE
     1  BGC      1

