@<TRIPOS>MOLECULE
1w3k_ligand_027
    43    44
SMALL
GAST_HUCK
****
This file was generated by PARSER (from files_GN.cpp)

@<TRIPOS>ATOM
      1 C2         59.2119   46.5783   38.6636 C.3         1 BGC       0.1341
      2 C3         58.0393   47.0369   39.5599 C.3         1 BGC       0.1141
      3 C4         56.7449   47.1960   38.7229 C.3         1 BGC       0.1119
      4 C5         56.4596   45.9128   37.8711 C.3         1 BGC       0.1130
      5 C6         55.2638   46.1554   36.9130 C.3         1 BGC       0.0730
      6 C1         58.8290   45.2900   37.8856 C.3         1 BGC       0.1884
      7 O2         60.3489   46.3562   39.4928 O.3         1 BGC      -0.3841
      8 O3         58.3686   48.2772   40.1888 O.3         1 BGC      -0.3864
      9 O4         55.6417   47.4924   39.5874 O.3         1 BGC      -0.3865
     10 O5         57.6291   45.5215   37.1071 O.3         1 BGC      -0.3405
     11 O6         54.7063   44.9366   36.4165 O.3         1 BGC      -0.3924
     12 C6         61.5385   42.9966   38.7600 C.3         1 BGC       0.0782
     13 C5         61.4798   43.0201   37.2074 C.3         1 BGC       0.1538
     14 C4         60.1050   43.5345   36.6697 C.3         1 BGC       0.1259
     15 C3         60.0653   43.3546   35.1355 C.3         1 BGC       0.1245
     16 C2         60.4394   41.9000   34.7503 C.3         1 BGC       0.0256
     17 O6         62.1996   44.1597   39.2509 O.3         1 BGC      -0.3922
     18 O5         61.7364   41.6775   36.7339 O.3         1 BGC      -0.3215
     19 O4         59.9202   44.9303   37.0121 O.3         1 BGC      -0.3398
     20 O3         58.7673   43.6785   34.6557 O.3         1 BGC      -0.3838
     21 N1         61.7349   41.5444   35.3666 N.4         1 BGC       0.3939
     22 H1         59.4553   47.3757   37.9554 H           1 BGC       0.0671
     23 H2         57.8625   46.2971   40.3462 H           1 BGC       0.0648
     24 H3         56.8635   48.0528   38.0491 H           1 BGC       0.0647
     25 H4         56.1860   45.0916   38.5463 H           1 BGC       0.0647
     26 H5         55.5795   46.7611   36.0593 H           1 BGC       0.0584
     27 H6         54.4644   46.6906   37.4393 H           1 BGC       0.0584
     28 H7         58.6522   44.4880   38.6066 H           1 BGC       0.0938
     29 H8         61.1349   46.4080   38.8934 H           1 BGC       0.2101
     30 H9         57.6804   48.4236   40.8746 H           1 BGC       0.2100
     31 H10        55.5392   46.6963   40.1655 H           1 BGC       0.2100
     32 H11        53.7420   45.1701   36.2873 H           1 BGC       0.2095
     33 H12        62.1031   42.1165   39.0984 H           1 BGC       0.0586
     34 H13        60.5346   42.9401   39.1871 H           1 BGC       0.0586
     35 H14        62.2839   43.6717   36.8392 H           1 BGC       0.0702
     36 H15        59.3153   42.9008   37.0981 H           1 BGC       0.0654
     37 H16        60.7782   44.0377   34.6701 H           1 BGC       0.0674
     38 H17        60.5301   41.8085   33.6604 H           1 BGC       0.0850
     39 H18        59.6729   41.1980   35.0973 H           1 BGC       0.0850
     40 H19        61.8183   44.3080   40.1492 H           1 BGC       0.2095
     41 H20        58.6563   43.1793   33.8115 H           1 BGC       0.2101
     42 H21        62.4692   42.1200   34.9451 H           1 BGC       0.2348
     43 H22        61.9495   40.5665   35.1566 H           1 BGC       0.2348
@<TRIPOS>BOND
     1     1     2   1
     2     6     1   1
     3     1     7   1
     4     2     3   1
     5     2     8   1
     6     4     3   1
     7     3     9   1
     8     4     5   1
     9    10     4   1
    10     5    11   1
    11     6    10   1
    12    19     6   1
    13    13    12   1
    14    12    17   1
    15    14    13   1
    16    13    18   1
    17    14    15   1
    18    14    19   1
    19    15    16   1
    20    15    20   1
    21    16    21   1
    22    18    21   1
    23     1    22   1
    24     2    23   1
    25     3    24   1
    26     4    25   1
    27     5    26   1
    28     5    27   1
    29     6    28   1
    30     7    29   1
    31     8    30   1
    32     9    31   1
    33    11    32   1
    34    12    33   1
    35    12    34   1
    36    13    35   1
    37    14    36   1
    38    15    37   1
    39    16    38   1
    40    16    39   1
    41    17    40   1
    42    20    41   1
    43    21    42   1
    44    21    43   1
@<TRIPOS>SUBSTRUCTURE
     1  BGC      1

