@<TRIPOS>MOLECULE
1w3k_ligand_013
    43    44
SMALL
GAST_HUCK
****
This file was generated by PARSER (from files_GN.cpp)

@<TRIPOS>ATOM
      1 C2         59.7772   43.1664   35.1447 C.3         1 BGC       0.1341
      2 C3         60.8876   42.0903   35.2794 C.3         1 BGC       0.1141
      3 C4         62.2526   42.7484   35.6435 C.3         1 BGC       0.1119
      4 C5         62.0926   43.7037   36.8706 C.3         1 BGC       0.1130
      5 C6         63.3504   44.5693   37.1306 C.3         1 BGC       0.0730
      6 C1         59.7090   44.0119   36.4435 C.3         1 BGC       0.1884
      7 O2         58.5169   42.5515   34.8934 O.3         1 BGC      -0.3841
      8 O3         60.9525   41.2994   34.0897 O.3         1 BGC      -0.3864
      9 O4         63.2163   41.7379   35.9393 O.3         1 BGC      -0.3865
     10 O5         60.9986   44.6252   36.6590 O.3         1 BGC      -0.3405
     11 O6         64.3665   43.8331   37.8045 O.3         1 BGC      -0.3924
     12 C6         55.6898   46.4197   38.1287 C.3         1 BGC       0.0782
     13 C5         56.7164   46.2072   36.9801 C.3         1 BGC       0.1538
     14 C4         58.1243   45.6753   37.4212 C.3         1 BGC       0.1259
     15 C3         59.0271   46.8380   37.9409 C.3         1 BGC       0.1245
     16 C2         58.9652   48.0519   36.9804 C.3         1 BGC       0.0256
     17 O6         55.0756   45.1918   38.5195 O.3         1 BGC      -0.3922
     18 O5         56.8489   47.3960   36.1653 O.3         1 BGC      -0.3215
     19 O4         58.7003   45.0236   36.2607 O.3         1 BGC      -0.3398
     20 O3         58.6358   47.2532   39.2479 O.3         1 BGC      -0.3838
     21 N1         57.5578   48.4158   36.7427 N.4         1 BGC       0.3939
     22 H1         60.0126   43.8276   34.3018 H           1 BGC       0.0671
     23 H2         60.6114   41.4072   36.0890 H           1 BGC       0.0648
     24 H3         62.6079   43.3263   34.7830 H           1 BGC       0.0647
     25 H4         61.8951   43.1132   37.7687 H           1 BGC       0.0647
     26 H5         63.0827   45.4281   37.7541 H           1 BGC       0.0584
     27 H6         63.7539   44.9503   36.1875 H           1 BGC       0.0584
     28 H7         59.4397   43.3608   37.2826 H           1 BGC       0.0938
     29 H8         58.3787   42.6433   33.9235 H           1 BGC       0.2101
     30 H9         61.7036   41.6275   33.5537 H           1 BGC       0.2100
     31 H10        63.5602   41.4713   35.0677 H           1 BGC       0.2100
     32 H11        63.9845   43.6259   38.6864 H           1 BGC       0.2095
     33 H12        54.8982   47.0869   37.7778 H           1 BGC       0.0586
     34 H13        56.1605   46.8801   39.0039 H           1 BGC       0.0586
     35 H14        56.2695   45.4512   36.3261 H           1 BGC       0.0702
     36 H15        57.9929   44.9413   38.2214 H           1 BGC       0.0654
     37 H16        60.0632   46.5137   38.0291 H           1 BGC       0.0674
     38 H17        59.4488   47.8048   36.0278 H           1 BGC       0.0850
     39 H18        59.4903   48.9041   37.4203 H           1 BGC       0.0850
     40 H19        55.7988   44.6393   38.8847 H           1 BGC       0.2095
     41 H20        58.8066   46.4762   39.8287 H           1 BGC       0.2101
     42 H21        57.5350   49.2193   36.1132 H           1 BGC       0.2348
     43 H22        57.1229   48.6741   37.6282 H           1 BGC       0.2348
@<TRIPOS>BOND
     1     1     2   1
     2     6     1   1
     3     1     7   1
     4     2     3   1
     5     2     8   1
     6     4     3   1
     7     3     9   1
     8     4     5   1
     9    10     4   1
    10     5    11   1
    11     6    10   1
    12    19     6   1
    13    13    12   1
    14    12    17   1
    15    14    13   1
    16    13    18   1
    17    14    15   1
    18    14    19   1
    19    15    16   1
    20    15    20   1
    21    16    21   1
    22    18    21   1
    23     1    22   1
    24     2    23   1
    25     3    24   1
    26     4    25   1
    27     5    26   1
    28     5    27   1
    29     6    28   1
    30     7    29   1
    31     8    30   1
    32     9    31   1
    33    11    32   1
    34    12    33   1
    35    12    34   1
    36    13    35   1
    37    14    36   1
    38    15    37   1
    39    16    38   1
    40    16    39   1
    41    17    40   1
    42    20    41   1
    43    21    42   1
    44    21    43   1
@<TRIPOS>SUBSTRUCTURE
     1  BGC      1

