@<TRIPOS>MOLECULE
1w3k_ligand_009
    43    44
SMALL
GAST_HUCK
****
This file was generated by PARSER (from files_GN.cpp)

@<TRIPOS>ATOM
      1 C2         58.6134   46.3905   37.4408 C.3         1 BGC       0.1341
      2 C3         58.9010   47.9135   37.3298 C.3         1 BGC       0.1141
      3 C4         60.3584   48.2548   37.7090 C.3         1 BGC       0.1119
      4 C5         61.3633   47.3146   36.9633 C.3         1 BGC       0.1130
      5 C6         62.8582   47.4936   37.3906 C.3         1 BGC       0.0730
      6 C1         59.6898   45.5682   36.6706 C.3         1 BGC       0.1884
      7 O2         57.3256   46.0762   36.9108 O.3         1 BGC      -0.3841
      8 O3         57.9865   48.6189   38.1786 O.3         1 BGC      -0.3864
      9 O4         60.6122   49.6268   37.3876 O.3         1 BGC      -0.3865
     10 O5         60.9973   45.9383   37.1650 O.3         1 BGC      -0.3405
     11 O6         63.6532   47.8911   36.2811 O.3         1 BGC      -0.3924
     12 C6         62.0206   41.4573   37.5767 C.3         1 BGC       0.0782
     13 C5         61.5757   42.9213   37.3144 C.3         1 BGC       0.1538
     14 C4         60.3389   43.1181   36.3732 C.3         1 BGC       0.1259
     15 C3         60.7196   43.2510   34.8598 C.3         1 BGC       0.1245
     16 C2         62.0303   44.0676   34.6591 C.3         1 BGC       0.0256
     17 O6         62.7572   40.8743   36.5033 O.3         1 BGC      -0.3922
     18 O5         62.7084   43.7181   36.9072 O.3         1 BGC      -0.3215
     19 O4         59.4334   44.1534   36.8457 O.3         1 BGC      -0.3398
     20 O3         60.8722   41.9583   34.2656 O.3         1 BGC      -0.3838
     21 N1         63.0648   43.6009   35.5889 N.4         1 BGC       0.3939
     22 H1         58.6442   46.0980   38.4922 H           1 BGC       0.0671
     23 H2         58.7094   48.2289   36.2945 H           1 BGC       0.0648
     24 H3         60.4898   48.1162   38.7908 H           1 BGC       0.0647
     25 H4         61.2897   47.5392   35.8883 H           1 BGC       0.0647
     26 H5         63.2587   46.5508   37.7831 H           1 BGC       0.0584
     27 H6         62.9550   48.2509   38.1782 H           1 BGC       0.0584
     28 H7         59.6073   45.8049   35.6058 H           1 BGC       0.0938
     29 H8         56.6950   46.5686   37.4951 H           1 BGC       0.2101
     30 H9         58.1105   49.5771   37.9637 H           1 BGC       0.2100
     31 H10        61.5465   49.8019   37.6346 H           1 BGC       0.2100
     32 H11        64.5121   48.1664   36.6640 H           1 BGC       0.2095
     33 H12        61.1636   40.8184   37.8116 H           1 BGC       0.0586
     34 H13        62.6829   41.4409   38.4480 H           1 BGC       0.0586
     35 H14        61.2867   43.3133   38.2965 H           1 BGC       0.0702
     36 H15        59.7237   42.2142   36.4546 H           1 BGC       0.0654
     37 H16        59.9209   43.7607   34.3342 H           1 BGC       0.0674
     38 H17        61.8879   45.1353   34.8125 H           1 BGC       0.0850
     39 H18        62.3862   43.9410   33.6359 H           1 BGC       0.0850
     40 H19        62.1749   40.1990   36.0951 H           1 BGC       0.2095
     41 H20        61.3103   42.0841   33.3864 H           1 BGC       0.2101
     42 H21        63.8984   44.1870   35.4515 H           1 BGC       0.2348
     43 H22        63.3019   42.6430   35.3526 H           1 BGC       0.2348
@<TRIPOS>BOND
     1     1     2   1
     2     6     1   1
     3     1     7   1
     4     2     3   1
     5     2     8   1
     6     4     3   1
     7     3     9   1
     8     4     5   1
     9    10     4   1
    10     5    11   1
    11     6    10   1
    12    19     6   1
    13    13    12   1
    14    12    17   1
    15    14    13   1
    16    13    18   1
    17    14    15   1
    18    14    19   1
    19    15    16   1
    20    15    20   1
    21    16    21   1
    22    18    21   1
    23     1    22   1
    24     2    23   1
    25     3    24   1
    26     4    25   1
    27     5    26   1
    28     5    27   1
    29     6    28   1
    30     7    29   1
    31     8    30   1
    32     9    31   1
    33    11    32   1
    34    12    33   1
    35    12    34   1
    36    13    35   1
    37    14    36   1
    38    15    37   1
    39    16    38   1
    40    16    39   1
    41    17    40   1
    42    20    41   1
    43    21    42   1
    44    21    43   1
@<TRIPOS>SUBSTRUCTURE
     1  BGC      1

