@<TRIPOS>MOLECULE
1w3k_ligand_001
    43    44
SMALL
GAST_HUCK
****
This file was generated by PARSER (from files_GN.cpp)

@<TRIPOS>ATOM
      1 C2         60.0971   45.3455   39.3440 C.3         1 BGC       0.1341
      2 C3         59.8492   46.7783   39.8998 C.3         1 BGC       0.1141
      3 C4         60.4415   47.8481   38.9364 C.3         1 BGC       0.1119
      4 C5         59.8760   47.6627   37.4936 C.3         1 BGC       0.1130
      5 C6         60.6733   48.4595   36.4271 C.3         1 BGC       0.0730
      6 C1         59.5164   45.2444   37.9020 C.3         1 BGC       0.1884
      7 O2         59.4990   44.3607   40.1852 O.3         1 BGC      -0.3841
      8 O3         60.4323   46.9053   41.2007 O.3         1 BGC      -0.3864
      9 O4         60.1290   49.1466   39.4299 O.3         1 BGC      -0.3865
     10 O5         59.9909   46.2959   37.0439 O.3         1 BGC      -0.3405
     11 O6         60.7221   49.8668   36.6763 O.3         1 BGC      -0.3924
     12 C6         63.2369   44.1560   35.4594 C.3         1 BGC       0.0782
     13 C5         61.7215   44.3823   35.7063 C.3         1 BGC       0.1538
     14 C4         61.0828   43.5171   36.8613 C.3         1 BGC       0.1259
     15 C3         60.8515   42.0503   36.3807 C.3         1 BGC       0.1245
     16 C2         60.1587   42.0388   34.9911 C.3         1 BGC       0.0256
     17 O6         64.0421   45.1496   36.0992 O.3         1 BGC      -0.3922
     18 O5         60.9245   44.2403   34.5138 O.3         1 BGC      -0.3215
     19 O4         59.7684   43.9825   37.2618 O.3         1 BGC      -0.3398
     20 O3         62.0724   41.3101   36.3498 O.3         1 BGC      -0.3838
     21 N1         60.8075   42.9624   34.0375 N.4         1 BGC       0.3939
     22 H1         61.1814   45.1657   39.3272 H           1 BGC       0.0671
     23 H2         58.7729   46.9389   40.0088 H           1 BGC       0.0648
     24 H3         61.5343   47.7369   38.9152 H           1 BGC       0.0647
     25 H4         58.8273   47.9639   37.4596 H           1 BGC       0.0647
     26 H5         60.2124   48.3127   35.4405 H           1 BGC       0.0584
     27 H6         61.7093   48.0782   36.3765 H           1 BGC       0.0584
     28 H7         58.4351   45.3308   37.9680 H           1 BGC       0.0938
     29 H8         60.0190   44.3779   41.0076 H           1 BGC       0.2101
     30 H9         61.3953   46.7492   41.0637 H           1 BGC       0.2100
     31 H10        60.6733   49.2575   40.2391 H           1 BGC       0.2100
     32 H11        61.6979   50.0566   36.7575 H           1 BGC       0.2095
     33 H12        63.4301   44.2040   34.3823 H           1 BGC       0.0586
     34 H13        63.5620   43.1759   35.8134 H           1 BGC       0.0586
     35 H14        61.6465   45.4399   35.9630 H           1 BGC       0.0702
     36 H15        61.7612   43.4991   37.7281 H           1 BGC       0.0654
     37 H16        60.2009   41.5426   37.0993 H           1 BGC       0.0674
     38 H17        59.1098   42.3320   35.0992 H           1 BGC       0.0850
     39 H18        60.1815   41.0341   34.5694 H           1 BGC       0.0850
     40 H19        64.0976   44.8587   37.0375 H           1 BGC       0.2095
     41 H20        61.8228   40.3989   36.0650 H           1 BGC       0.2101
     42 H21        60.2097   43.0048   33.2038 H           1 BGC       0.2348
     43 H22        61.7316   42.6047   33.7554 H           1 BGC       0.2348
@<TRIPOS>BOND
     1     1     2   1
     2     6     1   1
     3     1     7   1
     4     2     3   1
     5     2     8   1
     6     4     3   1
     7     3     9   1
     8     4     5   1
     9    10     4   1
    10     5    11   1
    11     6    10   1
    12    19     6   1
    13    13    12   1
    14    12    17   1
    15    14    13   1
    16    13    18   1
    17    14    15   1
    18    14    19   1
    19    15    16   1
    20    15    20   1
    21    16    21   1
    22    18    21   1
    23     1    22   1
    24     2    23   1
    25     3    24   1
    26     4    25   1
    27     5    26   1
    28     5    27   1
    29     6    28   1
    30     7    29   1
    31     8    30   1
    32     9    31   1
    33    11    32   1
    34    12    33   1
    35    12    34   1
    36    13    35   1
    37    14    36   1
    38    15    37   1
    39    16    38   1
    40    16    39   1
    41    17    40   1
    42    20    41   1
    43    21    42   1
    44    21    43   1
@<TRIPOS>SUBSTRUCTURE
     1  BGC      1

