@<TRIPOS>MOLECULE
1w3k_ligand_026
    43    44
SMALL
GAST_HUCK
****
This file was generated by PARSER (from files_GN.cpp)

@<TRIPOS>ATOM
      1 C2         60.4207   42.9600   39.7275 C.3         1 BGC       0.1341
      2 C3         59.8037   42.9703   41.1552 C.3         1 BGC       0.1141
      3 C4         58.6693   44.0192   41.2773 C.3         1 BGC       0.1119
      4 C5         57.6273   43.8098   40.1318 C.3         1 BGC       0.1130
      5 C6         56.4933   44.8621   40.1418 C.3         1 BGC       0.0730
      6 C1         59.3279   42.9005   38.6204 C.3         1 BGC       0.1884
      7 O2         61.2940   41.8452   39.5833 O.3         1 BGC      -0.3841
      8 O3         60.8152   43.2624   42.1222 O.3         1 BGC      -0.3864
      9 O4         58.0561   43.9126   42.5637 O.3         1 BGC      -0.3865
     10 O5         58.3086   43.8949   38.8596 O.3         1 BGC      -0.3405
     11 O6         55.8780   44.9562   38.8597 O.3         1 BGC      -0.3924
     12 C6         63.1053   41.3893   36.5487 C.3         1 BGC       0.0782
     13 C5         62.1505   42.5719   36.8590 C.3         1 BGC       0.1538
     14 C4         60.6420   42.2911   36.5772 C.3         1 BGC       0.1259
     15 C3         60.2798   42.5025   35.0661 C.3         1 BGC       0.1245
     16 C2         60.9181   43.8011   34.5197 C.3         1 BGC       0.0256
     17 O6         63.5472   40.7242   37.7374 O.3         1 BGC      -0.3922
     18 O5         62.5754   43.7885   36.2115 O.3         1 BGC      -0.3215
     19 O4         59.8361   43.2386   37.3107 O.3         1 BGC      -0.3398
     20 O3         60.6617   41.3915   34.2538 O.3         1 BGC      -0.3838
     21 N1         62.3535   43.8284   34.8608 N.4         1 BGC       0.3939
     22 H1         61.0065   43.8718   39.5856 H           1 BGC       0.0671
     23 H2         59.3995   41.9789   41.3717 H           1 BGC       0.0648
     24 H3         59.0989   45.0223   41.1921 H           1 BGC       0.0647
     25 H4         57.1705   42.8182   40.2374 H           1 BGC       0.0647
     26 H5         56.8959   45.8427   40.3998 H           1 BGC       0.0584
     27 H6         55.7284   44.5929   40.8684 H           1 BGC       0.0584
     28 H7         58.8515   41.9136   38.5883 H           1 BGC       0.0938
     29 H8         62.1856   42.1528   39.8835 H           1 BGC       0.2101
     30 H9         61.4283   42.5021   42.1037 H           1 BGC       0.2100
     31 H10        57.4848   44.7087   42.6492 H           1 BGC       0.2100
     32 H11        55.5303   44.0577   38.6709 H           1 BGC       0.2095
     33 H12        63.9954   41.7545   36.0204 H           1 BGC       0.0586
     34 H13        62.6379   40.6285   35.9068 H           1 BGC       0.0586
     35 H14        62.2649   42.7675   37.9339 H           1 BGC       0.0702
     36 H15        60.3785   41.2635   36.8449 H           1 BGC       0.0654
     37 H16        59.1903   42.5826   34.9695 H           1 BGC       0.0674
     38 H17        60.4315   44.6853   34.9503 H           1 BGC       0.0850
     39 H18        60.8168   43.8516   33.4297 H           1 BGC       0.0850
     40 H19        63.9040   41.4393   38.3138 H           1 BGC       0.2095
     41 H20        61.4640   41.6746   33.7588 H           1 BGC       0.2101
     42 H21        62.7611   44.6918   34.5090 H           1 BGC       0.2348
     43 H22        62.8192   43.0402   34.4203 H           1 BGC       0.2348
@<TRIPOS>BOND
     1     1     2   1
     2     6     1   1
     3     1     7   1
     4     2     3   1
     5     2     8   1
     6     4     3   1
     7     3     9   1
     8     4     5   1
     9    10     4   1
    10     5    11   1
    11     6    10   1
    12    19     6   1
    13    13    12   1
    14    12    17   1
    15    14    13   1
    16    13    18   1
    17    14    15   1
    18    14    19   1
    19    15    16   1
    20    15    20   1
    21    16    21   1
    22    18    21   1
    23     1    22   1
    24     2    23   1
    25     3    24   1
    26     4    25   1
    27     5    26   1
    28     5    27   1
    29     6    28   1
    30     7    29   1
    31     8    30   1
    32     9    31   1
    33    11    32   1
    34    12    33   1
    35    12    34   1
    36    13    35   1
    37    14    36   1
    38    15    37   1
    39    16    38   1
    40    16    39   1
    41    17    40   1
    42    20    41   1
    43    21    42   1
    44    21    43   1
@<TRIPOS>SUBSTRUCTURE
     1  BGC      1

