@<TRIPOS>MOLECULE
1w3k_ligand_031
    43    44
SMALL
GAST_HUCK
****
This file was generated by PARSER (from files_GN.cpp)

@<TRIPOS>ATOM
      1 C2         62.3491   40.2016   38.6843 C.3         1 BGC       0.1341
      2 C3         61.6333   39.8734   40.0274 C.3         1 BGC       0.1141
      3 C4         61.3863   41.1714   40.8575 C.3         1 BGC       0.1119
      4 C5         60.6649   42.2404   39.9717 C.3         1 BGC       0.1130
      5 C6         60.5597   43.6147   40.6869 C.3         1 BGC       0.0730
      6 C1         61.5714   41.3004   37.9001 C.3         1 BGC       0.1884
      7 O2         62.4744   39.0109   37.9109 O.3         1 BGC      -0.3841
      8 O3         62.4044   38.9542   40.7966 O.3         1 BGC      -0.3864
      9 O4         60.6082   40.8744   42.0277 O.3         1 BGC      -0.3865
     10 O5         61.4059   42.4676   38.7355 O.3         1 BGC      -0.3405
     11 O6         59.5165   44.4009   40.1013 O.3         1 BGC      -0.3924
     12 C6         63.5363   44.4216   37.1852 C.3         1 BGC       0.0782
     13 C5         62.1443   44.1423   36.5497 C.3         1 BGC       0.1538
     14 C4         62.0745   42.7349   35.8595 C.3         1 BGC       0.1259
     15 C3         60.7565   42.5846   35.0392 C.3         1 BGC       0.1245
     16 C2         60.5041   43.8463   34.1788 C.3         1 BGC       0.0256
     17 O6         64.3103   45.3542   36.4220 O.3         1 BGC      -0.3922
     18 O5         61.8463   45.1991   35.6117 O.3         1 BGC      -0.3215
     19 O4         62.3680   41.6090   36.7314 O.3         1 BGC      -0.3398
     20 O3         60.8085   41.4307   34.1983 O.3         1 BGC      -0.3838
     21 N1         60.6047   45.0420   35.0460 N.4         1 BGC       0.3939
     22 H1         63.3587   40.5627   38.9168 H           1 BGC       0.0671
     23 H2         60.6630   39.3969   39.8258 H           1 BGC       0.0648
     24 H3         62.3508   41.5731   41.1853 H           1 BGC       0.0647
     25 H4         59.6402   41.9003   39.7462 H           1 BGC       0.0647
     26 H5         61.5131   44.1660   40.6084 H           1 BGC       0.0584
     27 H6         60.3211   43.4698   41.7494 H           1 BGC       0.0584
     28 H7         60.5897   40.9077   37.5939 H           1 BGC       0.0938
     29 H8         61.7387   39.0388   37.2620 H           1 BGC       0.2101
     30 H9         63.2563   39.4138   40.9673 H           1 BGC       0.2100
     31 H10        59.7880   40.4436   41.6966 H           1 BGC       0.2100
     32 H11        59.8587   44.6647   39.2161 H           1 BGC       0.2095
     33 H12        64.1253   43.4966   37.2984 H           1 BGC       0.0586
     34 H13        63.4010   44.8543   38.1883 H           1 BGC       0.0586
     35 H14        61.3909   44.1831   37.3511 H           1 BGC       0.0702
     36 H15        62.8959   42.7296   35.1360 H           1 BGC       0.0654
     37 H16        59.9154   42.4686   35.7258 H           1 BGC       0.0674
     38 H17        59.4998   43.8009   33.7524 H           1 BGC       0.0850
     39 H18        61.2339   43.9010   33.3620 H           1 BGC       0.0850
     40 H19        64.7317   44.8181   35.7106 H           1 BGC       0.2095
     41 H20        61.5716   41.5803   33.6033 H           1 BGC       0.2101
     42 H21        59.9101   44.9680   35.7972 H           1 BGC       0.2348
     43 H22        60.3959   45.8721   34.4883 H           1 BGC       0.2348
@<TRIPOS>BOND
     1     1     2   1
     2     6     1   1
     3     1     7   1
     4     2     3   1
     5     2     8   1
     6     4     3   1
     7     3     9   1
     8     4     5   1
     9    10     4   1
    10     5    11   1
    11     6    10   1
    12    19     6   1
    13    13    12   1
    14    12    17   1
    15    14    13   1
    16    13    18   1
    17    14    15   1
    18    14    19   1
    19    15    16   1
    20    15    20   1
    21    16    21   1
    22    18    21   1
    23     1    22   1
    24     2    23   1
    25     3    24   1
    26     4    25   1
    27     5    26   1
    28     5    27   1
    29     6    28   1
    30     7    29   1
    31     8    30   1
    32     9    31   1
    33    11    32   1
    34    12    33   1
    35    12    34   1
    36    13    35   1
    37    14    36   1
    38    15    37   1
    39    16    38   1
    40    16    39   1
    41    17    40   1
    42    20    41   1
    43    21    42   1
    44    21    43   1
@<TRIPOS>SUBSTRUCTURE
     1  BGC      1

