@<TRIPOS>MOLECULE
1w3k_ligand_010
    43    44
SMALL
GAST_HUCK
****
This file was generated by PARSER (from files_GN.cpp)

@<TRIPOS>ATOM
      1 C2         60.0105   47.4796   36.9062 C.3         1 BGC       0.1341
      2 C3         60.5577   48.8080   37.4910 C.3         1 BGC       0.1141
      3 C4         59.9664   49.0425   38.9072 C.3         1 BGC       0.1119
      4 C5         60.1940   47.7897   39.8084 C.3         1 BGC       0.1130
      5 C6         59.4036   47.8776   41.1392 C.3         1 BGC       0.0730
      6 C1         60.4510   46.3237   37.8527 C.3         1 BGC       0.1884
      7 O2         60.4790   47.2996   35.5675 O.3         1 BGC      -0.3841
      8 O3         60.2569   49.9063   36.6355 O.3         1 BGC      -0.3864
      9 O4         60.5397   50.2153   39.4863 O.3         1 BGC      -0.3865
     10 O5         59.8238   46.5457   39.1411 O.3         1 BGC      -0.3405
     11 O6         58.0000   47.6945   40.9535 O.3         1 BGC      -0.3924
     12 C6         63.2137   44.0212   35.3176 C.3         1 BGC       0.0782
     13 C5         61.8259   44.6591   35.6086 C.3         1 BGC       0.1538
     14 C4         61.0693   44.1158   36.8712 C.3         1 BGC       0.1259
     15 C3         60.3658   42.7581   36.5568 C.3         1 BGC       0.1245
     16 C2         59.6156   42.8161   35.2013 C.3         1 BGC       0.0256
     17 O6         64.2578   44.6977   36.0108 O.3         1 BGC      -0.3922
     18 O5         60.9596   44.6263   34.4621 O.3         1 BGC      -0.3215
     19 O4         60.0402   45.0441   37.3203 O.3         1 BGC      -0.3398
     20 O3         61.3073   41.6810   36.5349 O.3         1 BGC      -0.3838
     21 N1         60.4858   43.3800   34.1466 N.4         1 BGC       0.3939
     22 H1         58.9177   47.5256   36.8710 H           1 BGC       0.0671
     23 H2         61.6533   48.7497   37.5628 H           1 BGC       0.0648
     24 H3         58.8899   49.2212   38.7999 H           1 BGC       0.0647
     25 H4         61.2524   47.7447   40.0670 H           1 BGC       0.0647
     26 H5         59.5641   48.8471   41.6106 H           1 BGC       0.0584
     27 H6         59.7601   47.1048   41.8297 H           1 BGC       0.0584
     28 H7         61.5394   46.3548   37.9998 H           1 BGC       0.0938
     29 H8         59.6682   47.0078   35.0674 H           1 BGC       0.2101
     30 H9         60.8311   49.7878   35.8589 H           1 BGC       0.2100
     31 H10        61.3831   50.3793   39.0064 H           1 BGC       0.2100
     32 H11        57.8950   46.7661   40.6570 H           1 BGC       0.2095
     33 H12        63.4193   44.1058   34.2467 H           1 BGC       0.0586
     34 H13        63.2422   42.9618   35.5771 H           1 BGC       0.0586
     35 H14        62.0475   45.7295   35.7723 H           1 BGC       0.0702
     36 H15        61.7777   43.9566   37.6945 H           1 BGC       0.0654
     37 H16        59.6525   42.5267   37.3479 H           1 BGC       0.0674
     38 H17        58.7309   43.4505   35.2974 H           1 BGC       0.0850
     39 H18        59.2870   41.8205   34.9026 H           1 BGC       0.0850
     40 H19        64.1363   44.4774   36.9584 H           1 BGC       0.2095
     41 H20        60.7739   40.8630   36.4404 H           1 BGC       0.2101
     42 H21        59.9259   43.4524   33.2871 H           1 BGC       0.2348
     43 H22        61.2730   42.7492   33.9630 H           1 BGC       0.2348
@<TRIPOS>BOND
     1     1     2   1
     2     6     1   1
     3     1     7   1
     4     2     3   1
     5     2     8   1
     6     4     3   1
     7     3     9   1
     8     4     5   1
     9    10     4   1
    10     5    11   1
    11     6    10   1
    12    19     6   1
    13    13    12   1
    14    12    17   1
    15    14    13   1
    16    13    18   1
    17    14    15   1
    18    14    19   1
    19    15    16   1
    20    15    20   1
    21    16    21   1
    22    18    21   1
    23     1    22   1
    24     2    23   1
    25     3    24   1
    26     4    25   1
    27     5    26   1
    28     5    27   1
    29     6    28   1
    30     7    29   1
    31     8    30   1
    32     9    31   1
    33    11    32   1
    34    12    33   1
    35    12    34   1
    36    13    35   1
    37    14    36   1
    38    15    37   1
    39    16    38   1
    40    16    39   1
    41    17    40   1
    42    20    41   1
    43    21    42   1
    44    21    43   1
@<TRIPOS>SUBSTRUCTURE
     1  BGC      1

