@<TRIPOS>MOLECULE
1w3k_ligand_028
    43    44
SMALL
GAST_HUCK
****
This file was generated by PARSER (from files_GN.cpp)

@<TRIPOS>ATOM
      1 C2         59.6382   45.6432   38.1504 C.3         1 BGC       0.1341
      2 C3         58.8678   46.3804   39.2772 C.3         1 BGC       0.1141
      3 C4         57.5566   45.6264   39.6294 C.3         1 BGC       0.1119
      4 C5         57.8535   44.1271   39.9467 C.3         1 BGC       0.1130
      5 C6         56.5569   43.2903   40.1216 C.3         1 BGC       0.0730
      6 C1         59.8637   44.1576   38.5421 C.3         1 BGC       0.1884
      7 O2         60.8867   46.2880   37.8930 O.3         1 BGC      -0.3841
      8 O3         58.5955   47.7350   38.9097 O.3         1 BGC      -0.3864
      9 O4         56.9291   46.2622   40.7432 O.3         1 BGC      -0.3865
     10 O5         58.6213   43.5130   38.8868 O.3         1 BGC      -0.3405
     11 O6         56.8454   41.8954   40.2267 O.3         1 BGC      -0.3924
     12 C6         62.3698   43.8859   35.1797 C.3         1 BGC       0.0782
     13 C5         62.1375   42.5697   35.9829 C.3         1 BGC       0.1538
     14 C4         61.6672   42.8129   37.4523 C.3         1 BGC       0.1259
     15 C3         61.6125   41.4582   38.2235 C.3         1 BGC       0.1245
     16 C2         62.8971   40.6161   37.9873 C.3         1 BGC       0.0256
     17 O6         61.7185   43.8451   33.9121 O.3         1 BGC      -0.3922
     18 O5         63.3679   41.8102   35.9970 O.3         1 BGC      -0.3215
     19 O4         60.3831   43.4745   37.3881 O.3         1 BGC      -0.3398
     20 O3         61.4473   41.6790   39.6228 O.3         1 BGC      -0.3838
     21 N1         63.1921   40.5621   36.5415 N.4         1 BGC       0.3939
     22 H1         59.0483   45.6915   37.2306 H           1 BGC       0.0671
     23 H2         59.5012   46.4185   40.1684 H           1 BGC       0.0648
     24 H3         56.8739   45.6835   38.7766 H           1 BGC       0.0647
     25 H4         58.4252   44.0754   40.8803 H           1 BGC       0.0647
     26 H5         55.8882   43.4506   39.2678 H           1 BGC       0.0584
     27 H6         56.0242   43.5806   41.0315 H           1 BGC       0.0584
     28 H7         60.5566   44.1209   39.3871 H           1 BGC       0.0938
     29 H8         61.3420   46.3629   38.7595 H           1 BGC       0.2101
     30 H9         58.0287   47.6914   38.1114 H           1 BGC       0.2100
     31 H10        57.5623   46.1698   41.4872 H           1 BGC       0.2100
     32 H11        57.1961   41.6319   39.3504 H           1 BGC       0.2095
     33 H12        63.4383   44.0615   35.0101 H           1 BGC       0.0586
     34 H13        61.9733   44.7524   35.7097 H           1 BGC       0.0586
     35 H14        61.3664   41.9791   35.4717 H           1 BGC       0.0702
     36 H15        62.4047   43.4669   37.9323 H           1 BGC       0.0654
     37 H16        60.7545   40.8791   37.8680 H           1 BGC       0.0674
     38 H17        62.7512   39.5964   38.3585 H           1 BGC       0.0850
     39 H18        63.7509   41.0539   38.5131 H           1 BGC       0.0850
     40 H19        62.1395   43.1070   33.4270 H           1 BGC       0.2095
     41 H20        62.2936   42.0844   39.9135 H           1 BGC       0.2101
     42 H21        62.4209   40.0858   36.0687 H           1 BGC       0.2348
     43 H22        64.0455   40.0165   36.3993 H           1 BGC       0.2348
@<TRIPOS>BOND
     1     1     2   1
     2     6     1   1
     3     1     7   1
     4     2     3   1
     5     2     8   1
     6     4     3   1
     7     3     9   1
     8     4     5   1
     9    10     4   1
    10     5    11   1
    11     6    10   1
    12    19     6   1
    13    13    12   1
    14    12    17   1
    15    14    13   1
    16    13    18   1
    17    14    15   1
    18    14    19   1
    19    15    16   1
    20    15    20   1
    21    16    21   1
    22    18    21   1
    23     1    22   1
    24     2    23   1
    25     3    24   1
    26     4    25   1
    27     5    26   1
    28     5    27   1
    29     6    28   1
    30     7    29   1
    31     8    30   1
    32     9    31   1
    33    11    32   1
    34    12    33   1
    35    12    34   1
    36    13    35   1
    37    14    36   1
    38    15    37   1
    39    16    38   1
    40    16    39   1
    41    17    40   1
    42    20    41   1
    43    21    42   1
    44    21    43   1
@<TRIPOS>SUBSTRUCTURE
     1  BGC      1

