@<TRIPOS>MOLECULE
1w3k_ligand_016
    43    44
SMALL
GAST_HUCK
****
This file was generated by PARSER (from files_GN.cpp)

@<TRIPOS>ATOM
      1 C2         61.6022   42.1988   35.9135 C.3         1 BGC       0.1341
      2 C3         61.1562   42.8226   34.5551 C.3         1 BGC       0.1141
      3 C4         60.2623   44.0827   34.7675 C.3         1 BGC       0.1119
      4 C5         60.9972   45.0945   35.6997 C.3         1 BGC       0.1130
      5 C6         60.2099   46.3955   36.0158 C.3         1 BGC       0.0730
      6 C1         62.1243   43.2989   36.8910 C.3         1 BGC       0.1884
      7 O2         62.6338   41.2197   35.7280 O.3         1 BGC      -0.3841
      8 O3         60.4510   41.8428   33.7885 O.3         1 BGC      -0.3864
      9 O4         59.9679   44.6947   33.5087 O.3         1 BGC      -0.3865
     10 O5         61.2444   44.4439   36.9620 O.3         1 BGC      -0.3405
     11 O6         60.2711   47.3308   34.9399 O.3         1 BGC      -0.3924
     12 C6         60.2185   44.1740   40.1937 C.3         1 BGC       0.0782
     13 C5         60.9953   42.8416   40.3314 C.3         1 BGC       0.1538
     14 C4         61.3011   42.1259   38.9664 C.3         1 BGC       0.1259
     15 C3         61.8322   40.6905   39.2608 C.3         1 BGC       0.1245
     16 C2         60.8933   39.9463   40.2473 C.3         1 BGC       0.0256
     17 O6         60.6558   45.1253   41.1733 O.3         1 BGC      -0.3922
     18 O5         60.1835   42.0018   41.1773 O.3         1 BGC      -0.3215
     19 O4         62.3483   42.8126   38.2309 O.3         1 BGC      -0.3398
     20 O3         62.0358   39.9291   38.0663 O.3         1 BGC      -0.3838
     21 N1         60.7390   40.7836   41.4534 N.4         1 BGC       0.3939
     22 H1         60.7308   41.7108   36.3608 H           1 BGC       0.0671
     23 H2         62.0489   43.1280   33.9921 H           1 BGC       0.0648
     24 H3         59.3242   43.7776   35.2367 H           1 BGC       0.0647
     25 H4         61.9500   45.3984   35.2484 H           1 BGC       0.0647
     26 H5         60.6532   46.8917   36.8861 H           1 BGC       0.0584
     27 H6         59.1634   46.1753   36.2529 H           1 BGC       0.0584
     28 H7         63.1060   43.6369   36.5366 H           1 BGC       0.0938
     29 H8         62.1731   40.3656   35.6072 H           1 BGC       0.2101
     30 H9         60.9874   41.7413   32.9758 H           1 BGC       0.2100
     31 H10        59.2885   44.1242   33.0996 H           1 BGC       0.2100
     32 H11        59.4180   47.2278   34.4715 H           1 BGC       0.2095
     33 H12        59.1472   43.9951   40.3452 H           1 BGC       0.0586
     34 H13        60.3610   44.6139   39.2016 H           1 BGC       0.0586
     35 H14        61.9423   43.0527   40.8370 H           1 BGC       0.0702
     36 H15        60.3759   42.0400   38.3890 H           1 BGC       0.0654
     37 H16        62.8148   40.7723   39.7413 H           1 BGC       0.0674
     38 H17        61.3310   38.9841   40.5238 H           1 BGC       0.0850
     39 H18        59.9137   39.7754   39.7852 H           1 BGC       0.0850
     40 H19        61.4242   45.5775   40.7445 H           1 BGC       0.2095
     41 H20        61.1717   39.8702   37.6053 H           1 BGC       0.2101
     42 H21        61.6632   40.9209   41.8722 H           1 BGC       0.2348
     43 H22        60.1445   40.2927   42.1211 H           1 BGC       0.2348
@<TRIPOS>BOND
     1     1     2   1
     2     6     1   1
     3     1     7   1
     4     2     3   1
     5     2     8   1
     6     4     3   1
     7     3     9   1
     8     4     5   1
     9    10     4   1
    10     5    11   1
    11     6    10   1
    12    19     6   1
    13    13    12   1
    14    12    17   1
    15    14    13   1
    16    13    18   1
    17    14    15   1
    18    14    19   1
    19    15    16   1
    20    15    20   1
    21    16    21   1
    22    18    21   1
    23     1    22   1
    24     2    23   1
    25     3    24   1
    26     4    25   1
    27     5    26   1
    28     5    27   1
    29     6    28   1
    30     7    29   1
    31     8    30   1
    32     9    31   1
    33    11    32   1
    34    12    33   1
    35    12    34   1
    36    13    35   1
    37    14    36   1
    38    15    37   1
    39    16    38   1
    40    16    39   1
    41    17    40   1
    42    20    41   1
    43    21    42   1
    44    21    43   1
@<TRIPOS>SUBSTRUCTURE
     1  BGC      1

