@<TRIPOS>MOLECULE
1w3k_ligand_014
    43    44
SMALL
GAST_HUCK
****
This file was generated by PARSER (from files_GN.cpp)

@<TRIPOS>ATOM
      1 C2         58.6696   45.4947   38.9021 C.3         1 BGC       0.1341
      2 C3         58.3854   46.9909   39.1855 C.3         1 BGC       0.1141
      3 C4         59.4915   47.9000   38.5778 C.3         1 BGC       0.1119
      4 C5         59.6900   47.5797   37.0641 C.3         1 BGC       0.1130
      5 C6         60.8796   48.3493   36.4306 C.3         1 BGC       0.0730
      6 C1         58.9415   45.2626   37.3913 C.3         1 BGC       0.1884
      7 O2         57.5741   44.6850   39.3314 O.3         1 BGC      -0.3841
      8 O3         58.2925   47.2083   40.5945 O.3         1 BGC      -0.3864
      9 O4         59.1524   49.2722   38.7834 O.3         1 BGC      -0.3865
     10 O5         59.9550   46.1675   36.8889 O.3         1 BGC      -0.3405
     11 O6         60.7992   49.7523   36.6853 O.3         1 BGC      -0.3924
     12 C6         60.2542   42.8209   34.5008 C.3         1 BGC       0.0782
     13 C5         60.5503   42.2385   35.9073 C.3         1 BGC       0.1538
     14 C4         60.5556   43.3216   37.0322 C.3         1 BGC       0.1259
     15 C3         60.9854   42.6562   38.3711 C.3         1 BGC       0.1245
     16 C2         62.2414   41.7636   38.1866 C.3         1 BGC       0.0256
     17 O6         60.3144   41.7888   33.5150 O.3         1 BGC      -0.3922
     18 O5         61.8347   41.5790   35.8613 O.3         1 BGC      -0.3215
     19 O4         59.2195   43.8721   37.1153 O.3         1 BGC      -0.3398
     20 O3         61.2725   43.6528   39.3493 O.3         1 BGC      -0.3838
     21 N1         62.0920   40.8836   37.0124 N.4         1 BGC       0.3939
     22 H1         59.5493   45.1900   39.4793 H           1 BGC       0.0671
     23 H2         57.4233   47.2645   38.7455 H           1 BGC       0.0648
     24 H3         60.4366   47.7108   39.1018 H           1 BGC       0.0647
     25 H4         58.7876   47.8500   36.5100 H           1 BGC       0.0647
     26 H5         60.8892   48.1967   35.3460 H           1 BGC       0.0584
     27 H6         61.8257   47.9687   36.8404 H           1 BGC       0.0584
     28 H7         58.0195   45.4742   36.8530 H           1 BGC       0.0938
     29 H8         56.8153   44.9439   38.7704 H           1 BGC       0.2101
     30 H9         59.1754   46.9796   40.9558 H           1 BGC       0.2100
     31 H10        58.3507   49.4281   38.2388 H           1 BGC       0.2100
     32 H11        61.7351   50.0422   36.7436 H           1 BGC       0.2095
     33 H12        60.9702   43.6056   34.2425 H           1 BGC       0.0586
     34 H13        59.2468   43.2449   34.4728 H           1 BGC       0.0586
     35 H14        59.7686   41.4997   36.1246 H           1 BGC       0.0702
     36 H15        61.2973   44.0771   36.7624 H           1 BGC       0.0654
     37 H16        60.1616   42.0302   38.7356 H           1 BGC       0.0674
     38 H17        62.3971   41.1473   39.0775 H           1 BGC       0.0850
     39 H18        63.1294   42.3880   38.0409 H           1 BGC       0.0850
     40 H19        61.1843   41.8891   33.0701 H           1 BGC       0.2095
     41 H20        61.6396   43.1549   40.1158 H           1 BGC       0.2101
     42 H21        61.3359   40.2161   37.1578 H           1 BGC       0.2348
     43 H22        62.9639   40.3631   36.8891 H           1 BGC       0.2348
@<TRIPOS>BOND
     1     1     2   1
     2     6     1   1
     3     1     7   1
     4     2     3   1
     5     2     8   1
     6     4     3   1
     7     3     9   1
     8     4     5   1
     9    10     4   1
    10     5    11   1
    11     6    10   1
    12    19     6   1
    13    13    12   1
    14    12    17   1
    15    14    13   1
    16    13    18   1
    17    14    15   1
    18    14    19   1
    19    15    16   1
    20    15    20   1
    21    16    21   1
    22    18    21   1
    23     1    22   1
    24     2    23   1
    25     3    24   1
    26     4    25   1
    27     5    26   1
    28     5    27   1
    29     6    28   1
    30     7    29   1
    31     8    30   1
    32     9    31   1
    33    11    32   1
    34    12    33   1
    35    12    34   1
    36    13    35   1
    37    14    36   1
    38    15    37   1
    39    16    38   1
    40    16    39   1
    41    17    40   1
    42    20    41   1
    43    21    42   1
    44    21    43   1
@<TRIPOS>SUBSTRUCTURE
     1  BGC      1

