@<TRIPOS>MOLECULE
1w3l_ligand_081
    64    66
SMALL
GAST_HUCK
****
This file was generated by PARSER (from files_GN.cpp)

@<TRIPOS>ATOM
      1 C2         61.4423   41.7616   37.0523 C.3         1 MOL       0.1341
      2 C3         61.7386   42.5562   35.7500 C.3         1 MOL       0.1141
      3 C4         60.7746   43.7694   35.6034 C.3         1 MOL       0.1119
      4 C5         60.8006   44.6299   36.9035 C.3         1 MOL       0.1130
      5 C6         59.7272   45.7439   36.9338 C.3         1 MOL       0.0730
      6 C1         61.4123   42.6913   38.2950 C.3         1 MOL       0.1884
      7 O2         62.4250   40.7448   37.2335 O.3         1 MOL      -0.3841
      8 O3         61.6118   41.6831   34.6211 O.3         1 MOL      -0.3864
      9 O4         61.1463   44.5748   34.4861 O.3         1 MOL      -0.3865
     10 O5         60.5207   43.7911   38.0413 O.3         1 MOL      -0.3405
     11 O6         59.7732   46.4504   38.1692 O.3         1 MOL      -0.3924
     12 C2         60.6514   44.1819   42.5786 C.3         1 MOL       0.1341
     13 C3         61.3341   43.5796   41.3174 C.3         1 MOL       0.1144
     14 C4         60.4045   42.5320   40.6267 C.3         1 MOL       0.1184
     15 C5         58.9539   43.1027   40.4410 C.3         1 MOL       0.1134
     16 C6         57.9533   42.0391   39.9290 C.3         1 MOL       0.0730
     17 C1         59.2582   44.7414   42.1856 C.3         1 MOL       0.1884
     18 O2         61.4671   45.2099   43.1395 O.3         1 MOL      -0.3841
     19 O3         62.5649   42.9737   41.7091 O.3         1 MOL      -0.3864
     20 O4         60.9505   41.9231   39.4273 O.3         1 MOL      -0.3401
     21 O5         58.4502   43.6595   41.6766 O.3         1 MOL      -0.3405
     22 O6         56.6483   42.5980   39.8071 O.3         1 MOL      -0.3924
     23 C6         55.6940   45.7440   42.1863 C.3         1 MOL       0.0782
     24 C5         56.8736   46.7406   42.0590 C.3         1 MOL       0.1538
     25 C4         57.9161   46.5886   43.2166 C.3         1 MOL       0.1259
     26 C3         58.9576   47.7482   43.1720 C.3         1 MOL       0.1245
     27 C2         58.2462   49.1160   43.0140 C.3         1 MOL       0.0256
     28 O6         54.7852   45.8811   41.0951 O.3         1 MOL      -0.3922
     29 O5         56.3318   48.0792   42.0678 O.3         1 MOL      -0.3215
     30 O4         58.5669   45.2962   43.3277 O.3         1 MOL      -0.3398
     31 O3         59.7470   47.7340   44.3606 O.3         1 MOL      -0.3838
     32 N1         57.2922   49.0456   41.8891 N.4         1 MOL       0.3939
     33 H1         60.4633   41.2782   36.9589 H           1 MOL       0.0671
     34 H2         62.7720   42.9153   35.7886 H           1 MOL       0.0648
     35 H3         59.7580   43.3954   35.4385 H           1 MOL       0.0647
     36 H4         61.7885   45.0941   37.0165 H           1 MOL       0.0647
     37 H5         58.7311   45.3071   36.8332 H           1 MOL       0.0584
     38 H6         59.8855   46.4501   36.1248 H           1 MOL       0.0584
     39 H7         62.4174   43.0689   38.5105 H           1 MOL       0.0938
     40 H8         62.2147   40.0738   36.5527 H           1 MOL       0.2101
     41 H9         62.3341   41.9252   34.0005 H           1 MOL       0.2100
     42 H10        60.9420   44.0385   33.6898 H           1 MOL       0.2100
     43 H11        60.6226   46.9397   38.1609 H           1 MOL       0.2095
     44 H12        60.5252   43.3991   43.3327 H           1 MOL       0.0671
     45 H13        61.5621   44.3948   40.6224 H           1 MOL       0.0648
     46 H14        60.3124   41.7015   41.3357 H           1 MOL       0.0651
     47 H15        58.9540   43.9094   39.7080 H           1 MOL       0.0647
     48 H16        57.9087   41.1940   40.6176 H           1 MOL       0.0584
     49 H17        58.2628   41.6800   38.9471 H           1 MOL       0.0584
     50 H18        59.4052   45.4974   41.4073 H           1 MOL       0.0938
     51 H19        61.0413   45.4408   43.9931 H           1 MOL       0.2101
     52 H20        63.0945   42.8896   40.8886 H           1 MOL       0.2100
     53 H21        56.7616   43.3903   39.2397 H           1 MOL       0.2095
     54 H22        55.1464   45.9299   43.1119 H           1 MOL       0.0586
     55 H23        56.0605   44.7167   42.1994 H           1 MOL       0.0586
     56 H24        57.3506   46.5693   41.0884 H           1 MOL       0.0702
     57 H25        57.3657   46.7076   44.1519 H           1 MOL       0.0654
     58 H26        59.6277   47.6147   42.3176 H           1 MOL       0.0674
     59 H27        58.9838   49.8979   42.8113 H           1 MOL       0.0850
     60 H28        57.7103   49.3734   43.9313 H           1 MOL       0.0850
     61 H29        55.2760   45.5698   40.3062 H           1 MOL       0.2095
     62 H30        60.4748   48.3717   44.1988 H           1 MOL       0.2101
     63 H31        57.8048   48.8560   41.0241 H           1 MOL       0.2348
     64 H32        56.8282   49.9536   41.8002 H           1 MOL       0.2348
@<TRIPOS>BOND
     1     1     2   1
     2     6     1   1
     3     1     7   1
     4     2     3   1
     5     2     8   1
     6     4     3   1
     7     3     9   1
     8     4     5   1
     9    10     4   1
    10     5    11   1
    11     6    10   1
    12    20     6   1
    13    12    13   1
    14    17    12   1
    15    12    18   1
    16    13    14   1
    17    13    19   1
    18    15    14   1
    19    14    20   1
    20    15    16   1
    21    21    15   1
    22    16    22   1
    23    17    21   1
    24    30    17   1
    25    24    23   1
    26    23    28   1
    27    25    24   1
    28    24    29   1
    29    25    26   1
    30    25    30   1
    31    26    27   1
    32    26    31   1
    33    27    32   1
    34    29    32   1
    35     1    33   1
    36     2    34   1
    37     3    35   1
    38     4    36   1
    39     5    37   1
    40     5    38   1
    41     6    39   1
    42     7    40   1
    43     8    41   1
    44     9    42   1
    45    11    43   1
    46    12    44   1
    47    13    45   1
    48    14    46   1
    49    15    47   1
    50    16    48   1
    51    16    49   1
    52    17    50   1
    53    18    51   1
    54    19    52   1
    55    22    53   1
    56    23    54   1
    57    23    55   1
    58    24    56   1
    59    25    57   1
    60    26    58   1
    61    27    59   1
    62    27    60   1
    63    28    61   1
    64    31    62   1
    65    32    63   1
    66    32    64   1
@<TRIPOS>SUBSTRUCTURE
     1  MOL      1

