@<TRIPOS>MOLECULE
1w3l_ligand_016
    64    66
SMALL
GAST_HUCK
****
This file was generated by PARSER (from files_GN.cpp)

@<TRIPOS>ATOM
      1 C2         61.4039   47.7805   36.1825 C.3         1 MOL       0.1341
      2 C3         60.9182   48.7142   37.3203 C.3         1 MOL       0.1141
      3 C4         59.4023   48.4934   37.5768 C.3         1 MOL       0.1119
      4 C5         59.0883   46.9786   37.7985 C.3         1 MOL       0.1130
      5 C6         57.5648   46.7024   37.8387 C.3         1 MOL       0.0730
      6 C1         61.0984   46.3173   36.5932 C.3         1 MOL       0.1884
      7 O2         62.7965   47.9618   35.9332 O.3         1 MOL      -0.3841
      8 O3         61.1681   50.0747   36.9837 O.3         1 MOL      -0.3864
      9 O4         58.9880   49.2688   38.7027 O.3         1 MOL      -0.3865
     10 O5         59.6729   46.1562   36.7581 O.3         1 MOL      -0.3405
     11 O6         57.2915   45.3986   38.3447 O.3         1 MOL      -0.3924
     12 C2         61.8074   41.6255   35.2047 C.3         1 MOL       0.1341
     13 C3         61.4190   43.1005   34.8735 C.3         1 MOL       0.1144
     14 C4         61.9261   44.0769   35.9750 C.3         1 MOL       0.1184
     15 C5         63.4696   43.9007   36.1333 C.3         1 MOL       0.1134
     16 C6         64.1413   44.6808   37.2905 C.3         1 MOL       0.0730
     17 C1         63.3389   41.5304   35.4871 C.3         1 MOL       0.1884
     18 O2         61.4275   40.7899   34.1099 O.3         1 MOL      -0.3841
     19 O3         60.0048   43.2505   34.7173 O.3         1 MOL      -0.3864
     20 O4         61.5842   45.4234   35.5714 O.3         1 MOL      -0.3401
     21 O5         63.7675   42.5266   36.4203 O.3         1 MOL      -0.3405
     22 O6         64.2084   46.0773   37.0352 O.3         1 MOL      -0.3924
     23 C6         63.4112   39.8569   39.7645 C.3         1 MOL       0.0782
     24 C5         64.1045   40.2839   38.4410 C.3         1 MOL       0.1538
     25 C4         63.5882   39.5710   37.1360 C.3         1 MOL       0.1259
     26 C3         64.2475   38.1603   36.9943 C.3         1 MOL       0.1245
     27 C2         65.7728   38.2055   37.2676 C.3         1 MOL       0.0256
     28 O6         62.1018   40.4101   39.8637 O.3         1 MOL      -0.3922
     29 O5         65.5407   40.1804   38.5454 O.3         1 MOL      -0.3215
     30 O4         63.8899   40.2541   35.8943 O.3         1 MOL      -0.3398
     31 O3         63.6300   37.2302   37.8815 O.3         1 MOL      -0.3838
     32 N1         66.0158   38.8945   38.5488 N.4         1 MOL       0.3939
     33 H1         60.8686   48.0159   35.2582 H           1 MOL       0.0671
     34 H2         61.4741   48.4944   38.2369 H           1 MOL       0.0648
     35 H3         58.8512   48.8517   36.7033 H           1 MOL       0.0647
     36 H4         59.5031   46.6700   38.7642 H           1 MOL       0.0647
     37 H5         57.1420   46.7752   36.8334 H           1 MOL       0.0584
     38 H6         57.0655   47.4327   38.4794 H           1 MOL       0.0584
     39 H7         61.5947   46.1110   37.5457 H           1 MOL       0.0938
     40 H8         62.9755   48.9234   36.0185 H           1 MOL       0.2101
     41 H9         62.1442   50.1641   36.9641 H           1 MOL       0.2100
     42 H10        59.4943   48.9149   39.4646 H           1 MOL       0.2100
     43 H11        57.5839   45.4190   39.2806 H           1 MOL       0.2095
     44 H12        61.2542   41.3021   36.0873 H           1 MOL       0.0671
     45 H13        61.8765   43.3830   33.9187 H           1 MOL       0.0648
     46 H14        61.4216   43.7992   36.9066 H           1 MOL       0.0651
     47 H15        63.9604   44.1859   35.1982 H           1 MOL       0.0647
     48 H16        65.1692   44.3371   37.4279 H           1 MOL       0.0584
     49 H17        63.6065   44.5103   38.2254 H           1 MOL       0.0584
     50 H18        63.8417   41.7401   34.5448 H           1 MOL       0.0938
     51 H19        61.9750   41.0893   33.3514 H           1 MOL       0.2101
     52 H20        59.7913   42.9301   33.8125 H           1 MOL       0.2100
     53 H21        64.8161   46.1692   36.2726 H           1 MOL       0.2095
     54 H22        63.9886   40.2402   40.6075 H           1 MOL       0.0586
     55 H23        63.3468   38.7754   39.8638 H           1 MOL       0.0586
     56 H24        63.9057   41.3468   38.3697 H           1 MOL       0.0702
     57 H25        62.5077   39.4398   37.1899 H           1 MOL       0.0654
     58 H26        64.0905   37.7732   35.9830 H           1 MOL       0.0674
     59 H27        66.2872   38.7365   36.4636 H           1 MOL       0.0850
     60 H28        66.1805   37.1935   37.3244 H           1 MOL       0.0850
     61 H29        61.5400   39.8829   39.2560 H           1 MOL       0.2095
     62 H30        63.7294   36.3539   37.4485 H           1 MOL       0.2101
     63 H31        67.0239   38.9207   38.7212 H           1 MOL       0.2348
     64 H32        65.5697   38.3698   39.3059 H           1 MOL       0.2348
@<TRIPOS>BOND
     1     1     2   1
     2     6     1   1
     3     1     7   1
     4     2     3   1
     5     2     8   1
     6     4     3   1
     7     3     9   1
     8     4     5   1
     9    10     4   1
    10     5    11   1
    11     6    10   1
    12    20     6   1
    13    12    13   1
    14    17    12   1
    15    12    18   1
    16    13    14   1
    17    13    19   1
    18    15    14   1
    19    14    20   1
    20    15    16   1
    21    21    15   1
    22    16    22   1
    23    17    21   1
    24    30    17   1
    25    24    23   1
    26    23    28   1
    27    25    24   1
    28    24    29   1
    29    25    26   1
    30    25    30   1
    31    26    27   1
    32    26    31   1
    33    27    32   1
    34    29    32   1
    35     1    33   1
    36     2    34   1
    37     3    35   1
    38     4    36   1
    39     5    37   1
    40     5    38   1
    41     6    39   1
    42     7    40   1
    43     8    41   1
    44     9    42   1
    45    11    43   1
    46    12    44   1
    47    13    45   1
    48    14    46   1
    49    15    47   1
    50    16    48   1
    51    16    49   1
    52    17    50   1
    53    18    51   1
    54    19    52   1
    55    22    53   1
    56    23    54   1
    57    23    55   1
    58    24    56   1
    59    25    57   1
    60    26    58   1
    61    27    59   1
    62    27    60   1
    63    28    61   1
    64    31    62   1
    65    32    63   1
    66    32    64   1
@<TRIPOS>SUBSTRUCTURE
     1  MOL      1

