@<TRIPOS>MOLECULE
1w3l_ligand_049
    64    66
SMALL
GAST_HUCK
****
This file was generated by PARSER (from files_GN.cpp)

@<TRIPOS>ATOM
      1 C2         60.8537   42.9497   39.4208 C.3         1 MOL       0.1341
      2 C3         61.9718   42.2301   38.6143 C.3         1 MOL       0.1141
      3 C4         61.4470   41.7918   37.2219 C.3         1 MOL       0.1119
      4 C5         60.7851   42.9970   36.4785 C.3         1 MOL       0.1130
      5 C6         60.1328   42.5605   35.1435 C.3         1 MOL       0.0730
      6 C1         60.2880   44.1269   38.5836 C.3         1 MOL       0.1884
      7 O2         61.3713   43.4425   40.6597 O.3         1 MOL      -0.3841
      8 O3         62.4445   41.0876   39.3250 O.3         1 MOL      -0.3864
      9 O4         62.5579   41.2705   36.4853 O.3         1 MOL      -0.3865
     10 O5         59.7805   43.6269   37.3215 O.3         1 MOL      -0.3405
     11 O6         59.2444   43.5678   34.6663 O.3         1 MOL      -0.3924
     12 C2         59.6653   48.5796   39.5020 C.3         1 MOL       0.1341
     13 C3         60.1185   47.0924   39.5377 C.3         1 MOL       0.1144
     14 C4         58.9136   46.1464   39.2527 C.3         1 MOL       0.1184
     15 C5         58.2132   46.5415   37.9117 C.3         1 MOL       0.1134
     16 C6         56.9103   45.7430   37.6524 C.3         1 MOL       0.0730
     17 C1         58.9622   48.8687   38.1447 C.3         1 MOL       0.1884
     18 O2         60.7899   49.4501   39.6600 O.3         1 MOL      -0.3841
     19 O3         60.6973   46.7623   40.8030 O.3         1 MOL      -0.3864
     20 O4         59.2373   44.7407   39.3656 O.3         1 MOL      -0.3401
     21 O5         57.8731   47.9466   37.8973 O.3         1 MOL      -0.3405
     22 O6         55.7261   46.4967   37.9319 O.3         1 MOL      -0.3924
     23 C6         57.2923   52.1693   36.1597 C.3         1 MOL       0.0782
     24 C5         57.1180   52.1470   37.6985 C.3         1 MOL       0.1538
     25 C4         57.2177   50.7013   38.2828 C.3         1 MOL       0.1259
     26 C3         56.7868   50.7000   39.7820 C.3         1 MOL       0.1245
     27 C2         55.4941   51.5239   40.0071 C.3         1 MOL       0.0256
     28 O6         56.8882   53.4212   35.6125 O.3         1 MOL      -0.3922
     29 O5         55.8344   52.7342   38.0045 O.3         1 MOL      -0.3215
     30 O4         58.5798   50.2595   38.0715 O.3         1 MOL      -0.3398
     31 O3         56.5659   49.3747   40.2610 O.3         1 MOL      -0.3838
     32 N1         55.6284   52.8426   39.3562 N.4         1 MOL       0.3939
     33 H1         60.0473   42.2386   39.6407 H           1 MOL       0.0671
     34 H2         62.8151   42.9140   38.4757 H           1 MOL       0.0648
     35 H3         60.7019   41.0009   37.3652 H           1 MOL       0.0647
     36 H4         61.5589   43.7364   36.2363 H           1 MOL       0.0647
     37 H5         59.5705   41.6347   35.2768 H           1 MOL       0.0584
     38 H6         60.9048   42.3942   34.3846 H           1 MOL       0.0584
     39 H7         61.0965   44.8390   38.4022 H           1 MOL       0.0938
     40 H8         61.6254   42.6443   41.1742 H           1 MOL       0.2101
     41 H9         63.3189   41.3599   39.6766 H           1 MOL       0.2100
     42 H10        62.2553   40.4151   36.1263 H           1 MOL       0.2100
     43 H11        58.9290   43.2384   33.7983 H           1 MOL       0.2095
     44 H12        58.9742   48.7652   40.3311 H           1 MOL       0.0671
     45 H13        60.8850   46.9604   38.7690 H           1 MOL       0.0648
     46 H14        58.1894   46.3226   40.0512 H           1 MOL       0.0651
     47 H15        58.8956   46.3310   37.0832 H           1 MOL       0.0647
     48 H16        56.8854   44.8308   38.2609 H           1 MOL       0.0584
     49 H17        56.8712   45.4450   36.5978 H           1 MOL       0.0584
     50 H18        59.7007   48.7380   37.3478 H           1 MOL       0.0938
     51 H19        61.1113   49.2987   40.5771 H           1 MOL       0.2101
     52 H20        61.6630   46.7123   40.6424 H           1 MOL       0.2100
     53 H21        55.7437   46.6467   38.9017 H           1 MOL       0.2095
     54 H22        56.6838   51.3842   35.7086 H           1 MOL       0.0586
     55 H23        58.3368   51.9996   35.8898 H           1 MOL       0.0586
     56 H24        57.9063   52.7713   38.1356 H           1 MOL       0.0702
     57 H25        56.5268   50.0650   37.7180 H           1 MOL       0.0654
     58 H26        57.5910   51.1434   40.3766 H           1 MOL       0.0674
     59 H27        55.3256   51.6690   41.0743 H           1 MOL       0.0850
     60 H28        54.6322   51.0021   39.5843 H           1 MOL       0.0850
     61 H29        57.0761   53.3507   34.6512 H           1 MOL       0.2095
     62 H30        55.8686   48.9987   39.6816 H           1 MOL       0.2101
     63 H31        56.4102   53.3501   39.7808 H           1 MOL       0.2348
     64 H32        54.7683   53.3742   39.5146 H           1 MOL       0.2348
@<TRIPOS>BOND
     1     1     2   1
     2     6     1   1
     3     1     7   1
     4     2     3   1
     5     2     8   1
     6     4     3   1
     7     3     9   1
     8     4     5   1
     9    10     4   1
    10     5    11   1
    11     6    10   1
    12    20     6   1
    13    12    13   1
    14    17    12   1
    15    12    18   1
    16    13    14   1
    17    13    19   1
    18    15    14   1
    19    14    20   1
    20    15    16   1
    21    21    15   1
    22    16    22   1
    23    17    21   1
    24    30    17   1
    25    24    23   1
    26    23    28   1
    27    25    24   1
    28    24    29   1
    29    25    26   1
    30    25    30   1
    31    26    27   1
    32    26    31   1
    33    27    32   1
    34    29    32   1
    35     1    33   1
    36     2    34   1
    37     3    35   1
    38     4    36   1
    39     5    37   1
    40     5    38   1
    41     6    39   1
    42     7    40   1
    43     8    41   1
    44     9    42   1
    45    11    43   1
    46    12    44   1
    47    13    45   1
    48    14    46   1
    49    15    47   1
    50    16    48   1
    51    16    49   1
    52    17    50   1
    53    18    51   1
    54    19    52   1
    55    22    53   1
    56    23    54   1
    57    23    55   1
    58    24    56   1
    59    25    57   1
    60    26    58   1
    61    27    59   1
    62    27    60   1
    63    28    61   1
    64    31    62   1
    65    32    63   1
    66    32    64   1
@<TRIPOS>SUBSTRUCTURE
     1  MOL      1

