@<TRIPOS>MOLECULE
1w3l_ligand_087
    64    66
SMALL
GAST_HUCK
****
This file was generated by PARSER (from files_GN.cpp)

@<TRIPOS>ATOM
      1 C2         51.3765   48.3179   40.8165 C.3         1 MOL       0.1341
      2 C3         49.8736   48.3855   40.4247 C.3         1 MOL       0.1141
      3 C4         49.6353   49.3260   39.2117 C.3         1 MOL       0.1119
      4 C5         50.6061   48.9641   38.0470 C.3         1 MOL       0.1130
      5 C6         50.5003   49.9134   36.8321 C.3         1 MOL       0.0730
      6 C1         52.2547   48.0246   39.5673 C.3         1 MOL       0.1884
      7 O2         51.5710   47.3122   41.8108 O.3         1 MOL      -0.3841
      8 O3         49.0989   48.8391   41.5361 O.3         1 MOL      -0.3864
      9 O4         48.2757   49.2390   38.7834 O.3         1 MOL      -0.3865
     10 O5         51.9658   48.9929   38.5325 O.3         1 MOL      -0.3405
     11 O6         50.7193   51.2747   37.1959 O.3         1 MOL      -0.3924
     12 C2         56.6206   49.4366   38.0424 C.3         1 MOL       0.1341
     13 C3         55.4169   49.4125   39.0196 C.3         1 MOL       0.1144
     14 C4         54.6409   48.0699   38.9127 C.3         1 MOL       0.1184
     15 C5         55.6201   46.8656   39.0795 C.3         1 MOL       0.1134
     16 C6         54.9427   45.4970   38.8216 C.3         1 MOL       0.0730
     17 C1         57.5103   48.1858   38.2814 C.3         1 MOL       0.1884
     18 O2         57.3732   50.6347   38.2381 O.3         1 MOL      -0.3841
     19 O3         54.5600   50.5178   38.7354 O.3         1 MOL      -0.3864
     20 O4         53.6411   48.0791   39.9579 O.3         1 MOL      -0.3401
     21 O5         56.7179   46.9847   38.1435 O.3         1 MOL      -0.3405
     22 O6         54.0400   45.1480   39.8687 O.3         1 MOL      -0.3924
     23 C6         61.1025   45.5163   38.6161 C.3         1 MOL       0.0782
     24 C5         60.3111   46.8603   38.5691 C.3         1 MOL       0.1538
     25 C4         59.5246   47.1163   37.2394 C.3         1 MOL       0.1259
     26 C3         60.5154   47.5041   36.0995 C.3         1 MOL       0.1245
     27 C2         61.4553   48.6402   36.5762 C.3         1 MOL       0.0256
     28 O6         61.4446   45.1852   39.9606 O.3         1 MOL      -0.3922
     29 O5         61.1431   48.0049   38.8654 O.3         1 MOL      -0.3215
     30 O4         58.5861   48.2171   37.3217 O.3         1 MOL      -0.3398
     31 O3         61.2888   46.3827   35.6663 O.3         1 MOL      -0.3838
     32 N1         62.0585   48.3197   37.8862 N.4         1 MOL       0.3939
     33 H1         51.6775   49.2816   41.2382 H           1 MOL       0.0671
     34 H2         49.5300   47.3788   40.1653 H           1 MOL       0.0648
     35 H3         49.8205   50.3565   39.5277 H           1 MOL       0.0647
     36 H4         50.3712   47.9568   37.6839 H           1 MOL       0.0647
     37 H5         49.5135   49.8254   36.3717 H           1 MOL       0.0584
     38 H6         51.2509   49.6351   36.0887 H           1 MOL       0.0584
     39 H7         52.0494   47.0121   39.2024 H           1 MOL       0.0938
     40 H8         52.5155   47.3759   42.0660 H           1 MOL       0.2101
     41 H9         49.2441   48.1767   42.2452 H           1 MOL       0.2100
     42 H10        48.1552   48.3099   38.4945 H           1 MOL       0.2100
     43 H11        50.5787   51.7840   36.3672 H           1 MOL       0.2095
     44 H12        56.2495   49.4321   37.0130 H           1 MOL       0.0671
     45 H13        55.7929   49.5347   40.0419 H           1 MOL       0.0648
     46 H14        54.2049   48.0043   37.9082 H           1 MOL       0.0651
     47 H15        56.0146   46.8563   40.0989 H           1 MOL       0.0647
     48 H16        55.7013   44.7129   38.7551 H           1 MOL       0.0584
     49 H17        54.3909   45.5168   37.8746 H           1 MOL       0.0584
     50 H18        57.9370   48.2491   39.2852 H           1 MOL       0.0938
     51 H19        58.0471   50.6307   37.5263 H           1 MOL       0.2101
     52 H20        53.8803   50.5055   39.4423 H           1 MOL       0.2100
     53 H21        54.5990   45.0909   40.6738 H           1 MOL       0.2095
     54 H22        62.0240   45.5691   38.0255 H           1 MOL       0.0586
     55 H23        60.4840   44.7021   38.2232 H           1 MOL       0.0586
     56 H24        59.5768   46.7868   39.3734 H           1 MOL       0.0702
     57 H25        58.9805   46.2151   36.9405 H           1 MOL       0.0654
     58 H26        59.9539   47.8548   35.2255 H           1 MOL       0.0674
     59 H27        60.8927   49.5706   36.6751 H           1 MOL       0.0850
     60 H28        62.2565   48.8004   35.8536 H           1 MOL       0.0850
     61 H29        62.0437   45.9039   40.2510 H           1 MOL       0.2095
     62 H30        60.6328   45.7196   35.3586 H           1 MOL       0.2101
     63 H31        62.5953   49.1371   38.1923 H           1 MOL       0.2348
     64 H32        62.7079   47.5350   37.7804 H           1 MOL       0.2348
@<TRIPOS>BOND
     1     1     2   1
     2     6     1   1
     3     1     7   1
     4     2     3   1
     5     2     8   1
     6     4     3   1
     7     3     9   1
     8     4     5   1
     9    10     4   1
    10     5    11   1
    11     6    10   1
    12    20     6   1
    13    12    13   1
    14    17    12   1
    15    12    18   1
    16    13    14   1
    17    13    19   1
    18    15    14   1
    19    14    20   1
    20    15    16   1
    21    21    15   1
    22    16    22   1
    23    17    21   1
    24    30    17   1
    25    24    23   1
    26    23    28   1
    27    25    24   1
    28    24    29   1
    29    25    26   1
    30    25    30   1
    31    26    27   1
    32    26    31   1
    33    27    32   1
    34    29    32   1
    35     1    33   1
    36     2    34   1
    37     3    35   1
    38     4    36   1
    39     5    37   1
    40     5    38   1
    41     6    39   1
    42     7    40   1
    43     8    41   1
    44     9    42   1
    45    11    43   1
    46    12    44   1
    47    13    45   1
    48    14    46   1
    49    15    47   1
    50    16    48   1
    51    16    49   1
    52    17    50   1
    53    18    51   1
    54    19    52   1
    55    22    53   1
    56    23    54   1
    57    23    55   1
    58    24    56   1
    59    25    57   1
    60    26    58   1
    61    27    59   1
    62    27    60   1
    63    28    61   1
    64    31    62   1
    65    32    63   1
    66    32    64   1
@<TRIPOS>SUBSTRUCTURE
     1  MOL      1

