@<TRIPOS>MOLECULE
1w3l_ligand_014
    64    66
SMALL
GAST_HUCK
****
This file was generated by PARSER (from files_GN.cpp)

@<TRIPOS>ATOM
      1 C2         61.3253   43.1608   39.2341 C.3         1 MOL       0.1341
      2 C3         62.2851   42.2195   38.4502 C.3         1 MOL       0.1141
      3 C4         61.6653   41.7645   37.1042 C.3         1 MOL       0.1119
      4 C5         61.1024   42.9753   36.2985 C.3         1 MOL       0.1130
      5 C6         60.2719   42.5391   35.0678 C.3         1 MOL       0.0730
      6 C1         60.9208   44.3360   38.3056 C.3         1 MOL       0.1884
      7 O2         61.9570   43.6412   40.4200 O.3         1 MOL      -0.3841
      8 O3         62.6115   41.0681   39.2283 O.3         1 MOL      -0.3864
      9 O4         62.6913   41.1022   36.3630 O.3         1 MOL      -0.3865
     10 O5         60.2648   43.8043   37.1357 O.3         1 MOL      -0.3405
     11 O6         59.3784   43.5823   34.6760 O.3         1 MOL      -0.3924
     12 C2         61.2113   48.8692   39.3092 C.3         1 MOL       0.1341
     13 C3         60.8200   47.5601   38.5795 C.3         1 MOL       0.1144
     14 C4         60.4732   46.4215   39.5907 C.3         1 MOL       0.1184
     15 C5         59.3814   46.9449   40.5773 C.3         1 MOL       0.1134
     16 C6         58.9880   45.8947   41.6497 C.3         1 MOL       0.0730
     17 C1         60.2005   49.2447   40.4249 C.3         1 MOL       0.1884
     18 O2         61.3077   49.9442   38.3709 O.3         1 MOL      -0.3841
     19 O3         61.9006   47.2185   37.7129 O.3         1 MOL      -0.3864
     20 O4         59.9724   45.2413   38.9158 O.3         1 MOL      -0.3401
     21 O5         59.8493   48.1268   41.2676 O.3         1 MOL      -0.3405
     22 O6         58.1328   46.4703   42.6350 O.3         1 MOL      -0.3924
     23 C6         60.7445   52.7206   42.9473 C.3         1 MOL       0.0782
     24 C5         61.9210   51.7340   42.7346 C.3         1 MOL       0.1538
     25 C4         61.4552   50.2787   42.3983 C.3         1 MOL       0.1259
     26 C3         62.7030   49.3357   42.4086 C.3         1 MOL       0.1245
     27 C2         63.5912   49.5703   43.6574 C.3         1 MOL       0.0256
     28 O6         61.2111   53.9781   43.4325 O.3         1 MOL      -0.3922
     29 O5         62.7286   51.7515   43.9323 O.3         1 MOL      -0.3215
     30 O4         60.7286   50.3718   41.1501 O.3         1 MOL      -0.3398
     31 O3         62.3379   47.9556   42.4247 O.3         1 MOL      -0.3838
     32 N1         63.8749   51.0091   43.8221 N.4         1 MOL       0.3939
     33 H1         60.4244   42.6114   39.5231 H           1 MOL       0.0671
     34 H2         63.2167   42.7597   38.2431 H           1 MOL       0.0648
     35 H3         60.8585   41.0575   37.3191 H           1 MOL       0.0647
     36 H4         61.9419   43.5788   35.9304 H           1 MOL       0.0647
     37 H5         59.6835   41.6468   35.2961 H           1 MOL       0.0584
     38 H6         60.9355   42.3162   34.2286 H           1 MOL       0.0584
     39 H7         61.8288   44.8613   37.9966 H           1 MOL       0.0938
     40 H8         62.1509   42.8455   40.9563 H           1 MOL       0.2101
     41 H9         63.4245   41.3151   39.7072 H           1 MOL       0.2100
     42 H10        62.2901   40.2696   36.0428 H           1 MOL       0.2100
     43 H11        59.0051   43.2872   33.8210 H           1 MOL       0.2095
     44 H12        62.1957   48.7272   39.7563 H           1 MOL       0.0671
     45 H13        59.9448   47.7477   37.9510 H           1 MOL       0.0648
     46 H14        61.3612   46.1784   40.1800 H           1 MOL       0.0651
     47 H15        58.4731   47.1916   40.0155 H           1 MOL       0.0647
     48 H16        59.8816   45.5136   42.1484 H           1 MOL       0.0584
     49 H17        58.4608   45.0557   41.1901 H           1 MOL       0.0584
     50 H18        59.2847   49.5958   39.9427 H           1 MOL       0.0938
     51 H19        62.2229   49.9195   38.0246 H           1 MOL       0.2101
     52 H20        62.6566   47.0345   38.3125 H           1 MOL       0.2100
     53 H21        57.2877   46.6508   42.1700 H           1 MOL       0.2095
     54 H22        60.0267   52.3109   43.6622 H           1 MOL       0.0586
     55 H23        60.2273   52.9043   42.0034 H           1 MOL       0.0586
     56 H24        62.5225   52.1135   41.9004 H           1 MOL       0.0702
     57 H25        60.7652   49.9447   43.1778 H           1 MOL       0.0654
     58 H26        63.3182   49.5355   41.5265 H           1 MOL       0.0674
     59 H27        64.5381   49.0341   43.5508 H           1 MOL       0.0850
     60 H28        63.0868   49.2029   44.5562 H           1 MOL       0.0850
     61 H29        61.5200   53.8081   44.3475 H           1 MOL       0.2095
     62 H30        62.7214   47.5554   41.6188 H           1 MOL       0.2101
     63 H31        64.4389   51.3482   43.0351 H           1 MOL       0.2348
     64 H32        64.4180   51.1296   44.6778 H           1 MOL       0.2348
@<TRIPOS>BOND
     1     1     2   1
     2     6     1   1
     3     1     7   1
     4     2     3   1
     5     2     8   1
     6     4     3   1
     7     3     9   1
     8     4     5   1
     9    10     4   1
    10     5    11   1
    11     6    10   1
    12    20     6   1
    13    12    13   1
    14    17    12   1
    15    12    18   1
    16    13    14   1
    17    13    19   1
    18    15    14   1
    19    14    20   1
    20    15    16   1
    21    21    15   1
    22    16    22   1
    23    17    21   1
    24    30    17   1
    25    24    23   1
    26    23    28   1
    27    25    24   1
    28    24    29   1
    29    25    26   1
    30    25    30   1
    31    26    27   1
    32    26    31   1
    33    27    32   1
    34    29    32   1
    35     1    33   1
    36     2    34   1
    37     3    35   1
    38     4    36   1
    39     5    37   1
    40     5    38   1
    41     6    39   1
    42     7    40   1
    43     8    41   1
    44     9    42   1
    45    11    43   1
    46    12    44   1
    47    13    45   1
    48    14    46   1
    49    15    47   1
    50    16    48   1
    51    16    49   1
    52    17    50   1
    53    18    51   1
    54    19    52   1
    55    22    53   1
    56    23    54   1
    57    23    55   1
    58    24    56   1
    59    25    57   1
    60    26    58   1
    61    27    59   1
    62    27    60   1
    63    28    61   1
    64    31    62   1
    65    32    63   1
    66    32    64   1
@<TRIPOS>SUBSTRUCTURE
     1  MOL      1

