@<TRIPOS>MOLECULE
1w3l_ligand_051
    64    66
SMALL
GAST_HUCK
****
This file was generated by PARSER (from files_GN.cpp)

@<TRIPOS>ATOM
      1 C2         60.6687   43.4717   36.1848 C.3         1 MOL       0.1341
      2 C3         60.8098   44.5137   35.0438 C.3         1 MOL       0.1141
      3 C4         60.9176   45.9395   35.6518 C.3         1 MOL       0.1119
      4 C5         62.1086   45.9819   36.6531 C.3         1 MOL       0.1130
      5 C6         62.2663   47.3701   37.3257 C.3         1 MOL       0.0730
      6 C1         61.8690   43.6105   37.1715 C.3         1 MOL       0.1884
      7 O2         60.5743   42.1791   35.5870 O.3         1 MOL      -0.3841
      8 O3         59.6847   44.4471   34.1679 O.3         1 MOL      -0.3864
      9 O4         61.0510   46.9182   34.6220 O.3         1 MOL      -0.3865
     10 O5         61.9214   44.9643   37.6714 O.3         1 MOL      -0.3405
     11 O6         62.9482   48.2603   36.4403 O.3         1 MOL      -0.3924
     12 C2         63.3853   39.2754   37.6518 C.3         1 MOL       0.1341
     13 C3         63.1962   40.8073   37.4687 C.3         1 MOL       0.1144
     14 C4         61.9721   41.3186   38.2784 C.3         1 MOL       0.1184
     15 C5         62.0819   40.7895   39.7533 C.3         1 MOL       0.1134
     16 C6         60.7869   41.0705   40.5742 C.3         1 MOL       0.0730
     17 C1         63.5743   38.9353   39.1476 C.3         1 MOL       0.1884
     18 O2         64.4704   38.8493   36.8346 O.3         1 MOL      -0.3841
     19 O3         63.0341   41.0729   36.0734 O.3         1 MOL      -0.3864
     20 O4         61.8175   42.7638   38.3396 O.3         1 MOL      -0.3401
     21 O5         62.3785   39.3641   39.8313 O.3         1 MOL      -0.3405
     22 O6         60.7548   40.3314   41.7976 O.3         1 MOL      -0.3924
     23 C6         64.7046   36.4995   42.0806 C.3         1 MOL       0.0782
     24 C5         65.5997   36.9999   40.9053 C.3         1 MOL       0.1538
     25 C4         64.9489   36.8175   39.4925 C.3         1 MOL       0.1259
     26 C3         65.9798   37.0992   38.3567 C.3         1 MOL       0.1245
     27 C2         67.3665   36.4698   38.6508 C.3         1 MOL       0.0256
     28 O6         64.2123   37.5791   42.8680 O.3         1 MOL      -0.3922
     29 O5         66.8609   36.2899   40.9527 O.3         1 MOL      -0.3215
     30 O4         63.6837   37.5094   39.3389 O.3         1 MOL      -0.3398
     31 O3         65.5199   36.5614   37.1124 O.3         1 MOL      -0.3838
     32 N1         67.7655   36.7682   40.0392 N.4         1 MOL       0.3939
     33 H1         59.7381   43.6705   36.7276 H           1 MOL       0.0671
     34 H2         61.7108   44.3036   34.4511 H           1 MOL       0.0648
     35 H3         59.9946   46.1593   36.1954 H           1 MOL       0.0647
     36 H4         63.0459   45.7743   36.1169 H           1 MOL       0.0647
     37 H5         62.8665   47.2776   38.2372 H           1 MOL       0.0584
     38 H6         61.2889   47.7953   37.5893 H           1 MOL       0.0584
     39 H7         62.8078   43.4274   36.6471 H           1 MOL       0.0938
     40 H8         59.8596   41.7131   36.0916 H           1 MOL       0.2101
     41 H9         59.8557   43.7246   33.5277 H           1 MOL       0.2100
     42 H10        60.1336   47.0575   34.3125 H           1 MOL       0.2100
     43 H11        63.0394   49.1035   36.9377 H           1 MOL       0.2095
     44 H12        62.4768   38.7693   37.3061 H           1 MOL       0.0671
     45 H13        64.0931   41.3249   37.8136 H           1 MOL       0.0648
     46 H14        61.0697   40.8919   37.8332 H           1 MOL       0.0651
     47 H15        62.8925   41.3265   40.2616 H           1 MOL       0.0647
     48 H16        59.8898   40.8129   39.9930 H           1 MOL       0.0584
     49 H17        60.7368   42.1388   40.8274 H           1 MOL       0.0584
     50 H18        64.4431   39.4619   39.5465 H           1 MOL       0.0938
     51 H19        64.0679   38.7651   35.9329 H           1 MOL       0.2101
     52 H20        63.9137   40.8551   35.6618 H           1 MOL       0.2100
     53 H21        60.6027   39.4009   41.5256 H           1 MOL       0.2095
     54 H22        65.2752   35.8507   42.7507 H           1 MOL       0.0586
     55 H23        63.8480   35.9244   41.7236 H           1 MOL       0.0586
     56 H24        65.8164   38.0642   41.0599 H           1 MOL       0.0702
     57 H25        64.6956   35.7612   39.4063 H           1 MOL       0.0654
     58 H26        66.1287   38.1797   38.2541 H           1 MOL       0.0674
     59 H27        68.1151   36.8813   37.9732 H           1 MOL       0.0850
     60 H28        67.3379   35.3876   38.5033 H           1 MOL       0.0850
     61 H29        63.5991   38.0664   42.2786 H           1 MOL       0.2095
     62 H30        64.6201   36.1988   37.2644 H           1 MOL       0.2101
     63 H31        67.8586   37.7826   40.1544 H           1 MOL       0.2348
     64 H32        68.6729   36.3340   40.2188 H           1 MOL       0.2348
@<TRIPOS>BOND
     1     1     2   1
     2     6     1   1
     3     1     7   1
     4     2     3   1
     5     2     8   1
     6     4     3   1
     7     3     9   1
     8     4     5   1
     9    10     4   1
    10     5    11   1
    11     6    10   1
    12    20     6   1
    13    12    13   1
    14    17    12   1
    15    12    18   1
    16    13    14   1
    17    13    19   1
    18    15    14   1
    19    14    20   1
    20    15    16   1
    21    21    15   1
    22    16    22   1
    23    17    21   1
    24    30    17   1
    25    24    23   1
    26    23    28   1
    27    25    24   1
    28    24    29   1
    29    25    26   1
    30    25    30   1
    31    26    27   1
    32    26    31   1
    33    27    32   1
    34    29    32   1
    35     1    33   1
    36     2    34   1
    37     3    35   1
    38     4    36   1
    39     5    37   1
    40     5    38   1
    41     6    39   1
    42     7    40   1
    43     8    41   1
    44     9    42   1
    45    11    43   1
    46    12    44   1
    47    13    45   1
    48    14    46   1
    49    15    47   1
    50    16    48   1
    51    16    49   1
    52    17    50   1
    53    18    51   1
    54    19    52   1
    55    22    53   1
    56    23    54   1
    57    23    55   1
    58    24    56   1
    59    25    57   1
    60    26    58   1
    61    27    59   1
    62    27    60   1
    63    28    61   1
    64    31    62   1
    65    32    63   1
    66    32    64   1
@<TRIPOS>SUBSTRUCTURE
     1  MOL      1

