@<TRIPOS>MOLECULE
1w3l_ligand_046
    64    66
SMALL
GAST_HUCK
****
This file was generated by PARSER (from files_GN.cpp)

@<TRIPOS>ATOM
      1 C2         60.9902   45.0773   35.8109 C.3         1 MOL       0.1341
      2 C3         60.7339   43.8705   34.8754 C.3         1 MOL       0.1141
      3 C4         61.8475   42.7996   35.0237 C.3         1 MOL       0.1119
      4 C5         62.0265   42.4113   36.5237 C.3         1 MOL       0.1130
      5 C6         63.2548   41.4941   36.7493 C.3         1 MOL       0.0730
      6 C1         61.1520   44.5764   37.2724 C.3         1 MOL       0.1884
      7 O2         59.9154   46.0036   35.7092 O.3         1 MOL      -0.3841
      8 O3         60.6589   44.3297   33.5286 O.3         1 MOL      -0.3864
      9 O4         61.5134   41.6558   34.2305 O.3         1 MOL      -0.3865
     10 O5         62.2101   43.5968   37.3381 O.3         1 MOL      -0.3405
     11 O6         63.3109   41.0678   38.1078 O.3         1 MOL      -0.3924
     12 C2         59.1602   47.3630   40.6300 C.3         1 MOL       0.1341
     13 C3         60.1657   46.3149   40.0747 C.3         1 MOL       0.1144
     14 C4         60.5090   46.5874   38.5805 C.3         1 MOL       0.1184
     15 C5         61.0143   48.0545   38.4244 C.3         1 MOL       0.1134
     16 C6         61.2320   48.4757   36.9500 C.3         1 MOL       0.0730
     17 C1         59.6481   48.8105   40.3378 C.3         1 MOL       0.1884
     18 O2         58.9931   47.1738   42.0371 O.3         1 MOL      -0.3841
     19 O3         59.6190   45.0058   40.2403 O.3         1 MOL      -0.3864
     20 O4         61.5367   45.6689   38.1355 O.3         1 MOL      -0.3401
     21 O5         60.0344   48.9675   38.9542 O.3         1 MOL      -0.3405
     22 O6         61.3398   49.8906   36.8394 O.3         1 MOL      -0.3924
     23 C6         58.0645   52.6303   41.3069 C.3         1 MOL       0.0782
     24 C5         57.1257   51.6615   40.5400 C.3         1 MOL       0.1538
     25 C4         57.8995   50.5420   39.7778 C.3         1 MOL       0.1259
     26 C3         56.8865   49.6921   38.9481 C.3         1 MOL       0.1245
     27 C2         55.9659   50.6146   38.1103 C.3         1 MOL       0.0256
     28 O6         59.2344   52.9494   40.5589 O.3         1 MOL      -0.3922
     29 O5         56.3338   52.4259   39.6053 O.3         1 MOL      -0.3215
     30 O4         58.6372   49.7590   40.7466 O.3         1 MOL      -0.3398
     31 O3         57.5556   48.7889   38.0690 O.3         1 MOL      -0.3838
     32 N1         55.3822   51.6631   38.9719 N.4         1 MOL       0.3939
     33 H1         61.9059   45.5932   35.5006 H           1 MOL       0.0671
     34 H2         59.7675   43.4305   35.1412 H           1 MOL       0.0648
     35 H3         62.7915   43.2109   34.6531 H           1 MOL       0.0647
     36 H4         61.1348   41.8675   36.8586 H           1 MOL       0.0647
     37 H5         64.1787   42.0353   36.5125 H           1 MOL       0.0584
     38 H6         63.1958   40.6083   36.1138 H           1 MOL       0.0584
     39 H7         60.2242   44.1032   37.6212 H           1 MOL       0.0938
     40 H8         60.1246   46.5747   34.9374 H           1 MOL       0.2101
     41 H9         59.8428   43.9314   33.1647 H           1 MOL       0.2100
     42 H10        62.2078   41.6150   33.5372 H           1 MOL       0.2100
     43 H11        64.2564   40.8662   38.2760 H           1 MOL       0.2095
     44 H12        58.1894   47.2033   40.1516 H           1 MOL       0.0671
     45 H13        61.0863   46.3662   40.6659 H           1 MOL       0.0648
     46 H14        59.5893   46.4879   37.9916 H           1 MOL       0.0651
     47 H15        61.9601   48.1855   38.9623 H           1 MOL       0.0647
     48 H16        60.3770   48.1610   36.3431 H           1 MOL       0.0584
     49 H17        62.1393   48.0186   36.5440 H           1 MOL       0.0584
     50 H18        60.5277   49.0151   40.9586 H           1 MOL       0.0938
     51 H19        58.2252   47.7307   42.2913 H           1 MOL       0.2101
     52 H20        60.3510   44.3883   40.0414 H           1 MOL       0.2100
     53 H21        62.3004   50.0753   36.8301 H           1 MOL       0.2095
     54 H22        58.3684   52.1821   42.2544 H           1 MOL       0.0586
     55 H23        57.5309   53.5570   41.5269 H           1 MOL       0.0586
     56 H24        56.4563   51.2054   41.2759 H           1 MOL       0.0702
     57 H25        58.5833   51.0431   39.0861 H           1 MOL       0.0654
     58 H26        56.2707   49.1045   39.6360 H           1 MOL       0.0674
     59 H27        55.1602   50.0321   37.6599 H           1 MOL       0.0850
     60 H28        56.5393   51.0909   37.3076 H           1 MOL       0.0850
     61 H29        59.7334   53.5810   41.1206 H           1 MOL       0.2095
     62 H30        56.8404   48.2809   37.6276 H           1 MOL       0.2101
     63 H31        54.7851   51.2245   39.6768 H           1 MOL       0.2348
     64 H32        54.8063   52.2769   38.3906 H           1 MOL       0.2348
@<TRIPOS>BOND
     1     1     2   1
     2     6     1   1
     3     1     7   1
     4     2     3   1
     5     2     8   1
     6     4     3   1
     7     3     9   1
     8     4     5   1
     9    10     4   1
    10     5    11   1
    11     6    10   1
    12    20     6   1
    13    12    13   1
    14    17    12   1
    15    12    18   1
    16    13    14   1
    17    13    19   1
    18    15    14   1
    19    14    20   1
    20    15    16   1
    21    21    15   1
    22    16    22   1
    23    17    21   1
    24    30    17   1
    25    24    23   1
    26    23    28   1
    27    25    24   1
    28    24    29   1
    29    25    26   1
    30    25    30   1
    31    26    27   1
    32    26    31   1
    33    27    32   1
    34    29    32   1
    35     1    33   1
    36     2    34   1
    37     3    35   1
    38     4    36   1
    39     5    37   1
    40     5    38   1
    41     6    39   1
    42     7    40   1
    43     8    41   1
    44     9    42   1
    45    11    43   1
    46    12    44   1
    47    13    45   1
    48    14    46   1
    49    15    47   1
    50    16    48   1
    51    16    49   1
    52    17    50   1
    53    18    51   1
    54    19    52   1
    55    22    53   1
    56    23    54   1
    57    23    55   1
    58    24    56   1
    59    25    57   1
    60    26    58   1
    61    27    59   1
    62    27    60   1
    63    28    61   1
    64    31    62   1
    65    32    63   1
    66    32    64   1
@<TRIPOS>SUBSTRUCTURE
     1  MOL      1

