@<TRIPOS>MOLECULE
1w3l_ligand_076
    64    66
SMALL
GAST_HUCK
****
This file was generated by PARSER (from files_GN.cpp)

@<TRIPOS>ATOM
      1 C2         60.0600   44.0177   38.1460 C.3         1 MOL       0.1341
      2 C3         61.1957   42.9859   37.9188 C.3         1 MOL       0.1141
      3 C4         61.1232   42.3485   36.5086 C.3         1 MOL       0.1119
      4 C5         61.0312   43.4456   35.4052 C.3         1 MOL       0.1130
      5 C6         60.6153   42.8635   34.0293 C.3         1 MOL       0.0730
      6 C1         60.0192   45.0743   37.0001 C.3         1 MOL       0.1884
      7 O2         60.2745   44.6519   39.4052 O.3         1 MOL      -0.3841
      8 O3         61.1206   41.9534   38.9042 O.3         1 MOL      -0.3864
      9 O4         62.2819   41.5273   36.3466 O.3         1 MOL      -0.3865
     10 O5         60.0052   44.4081   35.7189 O.3         1 MOL      -0.3405
     11 O6         61.0721   41.5315   33.8045 O.3         1 MOL      -0.3924
     12 C2         58.4586   49.1335   38.9299 C.3         1 MOL       0.1341
     13 C3         59.0455   48.1899   37.8456 C.3         1 MOL       0.1144
     14 C4         58.3430   46.8031   37.9042 C.3         1 MOL       0.1184
     15 C5         56.8184   47.0239   37.6767 C.3         1 MOL       0.1134
     16 C6         56.0073   45.7029   37.7201 C.3         1 MOL       0.0730
     17 C1         56.8992   49.1838   38.8821 C.3         1 MOL       0.1884
     18 O2         59.0067   50.4464   38.7669 O.3         1 MOL      -0.3841
     19 O3         60.4539   48.0591   38.0400 O.3         1 MOL      -0.3864
     20 O4         58.8309   45.8940   36.8990 O.3         1 MOL      -0.3401
     21 O5         56.2879   47.8855   38.7017 O.3         1 MOL      -0.3405
     22 O6         56.4658   44.8253   38.7452 O.3         1 MOL      -0.3924
     23 C6         54.0454   49.7862   43.0741 C.3         1 MOL       0.0782
     24 C5         55.2495   50.1996   42.1775 C.3         1 MOL       0.1538
     25 C4         55.7121   49.1426   41.1169 C.3         1 MOL       0.1259
     26 C3         56.5705   48.0209   41.7868 C.3         1 MOL       0.1245
     27 C2         57.6341   48.6245   42.7356 C.3         1 MOL       0.0256
     28 O6         52.7992   50.0145   42.4200 O.3         1 MOL      -0.3922
     29 O5         56.3736   50.6214   42.9814 O.3         1 MOL      -0.3215
     30 O4         56.4270   49.8564   40.0749 O.3         1 MOL      -0.3398
     31 O3         55.7453   47.1148   42.5171 O.3         1 MOL      -0.3838
     32 N1         57.0032   49.5983   43.6471 N.4         1 MOL       0.3939
     33 H1         59.1030   43.4908   38.1828 H           1 MOL       0.0671
     34 H2         62.1645   43.4884   38.0297 H           1 MOL       0.0648
     35 H3         60.2328   41.7116   36.4592 H           1 MOL       0.0647
     36 H4         61.9942   43.9526   35.3038 H           1 MOL       0.0647
     37 H5         60.9962   43.5010   33.2246 H           1 MOL       0.0584
     38 H6         59.5254   42.8497   33.9603 H           1 MOL       0.0584
     39 H7         60.8957   45.7274   37.0640 H           1 MOL       0.0938
     40 H8         59.9827   43.9889   40.0668 H           1 MOL       0.2101
     41 H9         60.2426   41.5338   38.7714 H           1 MOL       0.2100
     42 H10        61.9525   40.6513   36.0575 H           1 MOL       0.2100
     43 H11        61.9485   41.6066   33.3684 H           1 MOL       0.2095
     44 H12        58.7816   48.7614   39.9060 H           1 MOL       0.0671
     45 H13        58.8883   48.6485   36.8611 H           1 MOL       0.0648
     46 H14        58.4574   46.3869   38.9049 H           1 MOL       0.0651
     47 H15        56.6545   47.4826   36.6942 H           1 MOL       0.0647
     48 H16        56.0789   45.1767   36.7656 H           1 MOL       0.0584
     49 H17        54.9537   45.9312   37.9028 H           1 MOL       0.0584
     50 H18        56.6017   49.8052   38.0330 H           1 MOL       0.0938
     51 H19        58.8507   50.9021   39.6211 H           1 MOL       0.2101
     52 H20        60.8341   48.1280   37.1399 H           1 MOL       0.2100
     53 H21        56.1939   45.2487   39.5865 H           1 MOL       0.2095
     54 H22        54.0553   50.3902   43.9869 H           1 MOL       0.0586
     55 H23        54.1069   48.7376   43.3694 H           1 MOL       0.0586
     56 H24        54.9173   51.0921   41.6385 H           1 MOL       0.0702
     57 H25        54.8222   48.6966   40.6657 H           1 MOL       0.0654
     58 H26        57.0770   47.4224   41.0300 H           1 MOL       0.0674
     59 H27        58.4126   49.1332   42.1635 H           1 MOL       0.0850
     60 H28        58.1050   47.8363   43.3272 H           1 MOL       0.0850
     61 H29        52.7060   49.2844   41.7735 H           1 MOL       0.2095
     62 H30        55.2157   46.6443   41.8394 H           1 MOL       0.2101
     63 H31        57.7262   50.0026   44.2454 H           1 MOL       0.2348
     64 H32        56.3272   49.1108   44.2404 H           1 MOL       0.2348
@<TRIPOS>BOND
     1     1     2   1
     2     6     1   1
     3     1     7   1
     4     2     3   1
     5     2     8   1
     6     4     3   1
     7     3     9   1
     8     4     5   1
     9    10     4   1
    10     5    11   1
    11     6    10   1
    12    20     6   1
    13    12    13   1
    14    17    12   1
    15    12    18   1
    16    13    14   1
    17    13    19   1
    18    15    14   1
    19    14    20   1
    20    15    16   1
    21    21    15   1
    22    16    22   1
    23    17    21   1
    24    30    17   1
    25    24    23   1
    26    23    28   1
    27    25    24   1
    28    24    29   1
    29    25    26   1
    30    25    30   1
    31    26    27   1
    32    26    31   1
    33    27    32   1
    34    29    32   1
    35     1    33   1
    36     2    34   1
    37     3    35   1
    38     4    36   1
    39     5    37   1
    40     5    38   1
    41     6    39   1
    42     7    40   1
    43     8    41   1
    44     9    42   1
    45    11    43   1
    46    12    44   1
    47    13    45   1
    48    14    46   1
    49    15    47   1
    50    16    48   1
    51    16    49   1
    52    17    50   1
    53    18    51   1
    54    19    52   1
    55    22    53   1
    56    23    54   1
    57    23    55   1
    58    24    56   1
    59    25    57   1
    60    26    58   1
    61    27    59   1
    62    27    60   1
    63    28    61   1
    64    31    62   1
    65    32    63   1
    66    32    64   1
@<TRIPOS>SUBSTRUCTURE
     1  MOL      1

