@<TRIPOS>MOLECULE
1w3l_ligand_072
    64    66
SMALL
GAST_HUCK
****
This file was generated by PARSER (from files_GN.cpp)

@<TRIPOS>ATOM
      1 C2         60.6081   48.1276   35.7823 C.3         1 MOL       0.1341
      2 C3         59.8562   49.1858   36.6301 C.3         1 MOL       0.1141
      3 C4         58.4399   48.6817   37.0173 C.3         1 MOL       0.1119
      4 C5         58.4983   47.2487   37.6369 C.3         1 MOL       0.1130
      5 C6         57.0936   46.6373   37.8829 C.3         1 MOL       0.0730
      6 C1         60.5891   46.7541   36.4979 C.3         1 MOL       0.1884
      7 O2         61.9511   48.5334   35.5087 O.3         1 MOL      -0.3841
      8 O3         59.7440   50.4118   35.9144 O.3         1 MOL      -0.3864
      9 O4         57.8318   49.6056   37.9304 O.3         1 MOL      -0.3865
     10 O5         59.2333   46.3483   36.7766 O.3         1 MOL      -0.3405
     11 O6         56.4842   46.1934   36.6717 O.3         1 MOL      -0.3924
     12 C2         61.4662   41.9887   35.4244 C.3         1 MOL       0.1341
     13 C3         61.1535   43.4553   34.9902 C.3         1 MOL       0.1144
     14 C4         61.4912   44.4815   36.1093 C.3         1 MOL       0.1184
     15 C5         62.9908   44.3007   36.4805 C.3         1 MOL       0.1134
     16 C6         63.4936   45.2044   37.6268 C.3         1 MOL       0.0730
     17 C1         62.8820   41.8718   36.0778 C.3         1 MOL       0.1884
     18 O2         61.3549   41.1186   34.2834 O.3         1 MOL      -0.3841
     19 O3         59.7736   43.5860   34.6362 O.3         1 MOL      -0.3864
     20 O4         61.2191   45.8063   35.6095 O.3         1 MOL      -0.3401
     21 O5         63.1855   42.9680   36.9554 O.3         1 MOL      -0.3405
     22 O6         63.6748   46.5567   37.2100 O.3         1 MOL      -0.3924
     23 C6         65.2488   39.2200   38.2875 C.3         1 MOL       0.0782
     24 C5         63.7321   39.1713   38.6142 C.3         1 MOL       0.1538
     25 C4         62.9951   40.4822   38.1955 C.3         1 MOL       0.1259
     26 C3         61.5374   40.4702   38.7351 C.3         1 MOL       0.1245
     27 C2         61.4994   40.0396   40.2241 C.3         1 MOL       0.0256
     28 O6         65.8961   38.0077   38.6761 O.3         1 MOL      -0.3922
     29 O5         63.6008   38.9655   40.0400 O.3         1 MOL      -0.3215
     30 O4         63.0904   40.6074   36.7526 O.3         1 MOL      -0.3398
     31 O3         60.9505   41.7681   38.6436 O.3         1 MOL      -0.3838
     32 N1         62.2975   38.8169   40.4263 N.4         1 MOL       0.3939
     33 H1         60.0982   48.0216   34.8181 H           1 MOL       0.0671
     34 H2         60.4247   49.3822   37.5426 H           1 MOL       0.0648
     35 H3         57.8198   48.6539   36.1218 H           1 MOL       0.0647
     36 H4         59.0041   47.3181   38.6158 H           1 MOL       0.0647
     37 H5         56.4372   47.3666   38.3749 H           1 MOL       0.0584
     38 H6         57.1920   45.7693   38.5390 H           1 MOL       0.0584
     39 H7         61.1493   46.8246   37.4250 H           1 MOL       0.0938
     40 H8         62.3041   48.9437   36.3326 H           1 MOL       0.2101
     41 H9         59.3078   51.0429   36.5309 H           1 MOL       0.2100
     42 H10        58.4149   49.6210   38.7177 H           1 MOL       0.2100
     43 H11        56.4094   46.9943   36.0982 H           1 MOL       0.2095
     44 H12        60.7125   41.6688   36.1415 H           1 MOL       0.0671
     45 H13        61.7388   43.6928   34.0934 H           1 MOL       0.0648
     46 H14        60.8706   44.2390   36.9745 H           1 MOL       0.0651
     47 H15        63.6309   44.4755   35.5994 H           1 MOL       0.0647
     48 H16        64.4627   44.8406   37.9739 H           1 MOL       0.0584
     49 H17        62.7956   45.1646   38.4584 H           1 MOL       0.0584
     50 H18        63.6218   41.8976   35.2647 H           1 MOL       0.0938
     51 H19        62.0453   41.4270   33.6503 H           1 MOL       0.2101
     52 H20        59.6345   43.0180   33.8476 H           1 MOL       0.2100
     53 H21        63.8619   47.0290   38.0482 H           1 MOL       0.2095
     54 H22        65.7211   40.0497   38.8234 H           1 MOL       0.0586
     55 H23        65.4013   39.3567   37.2127 H           1 MOL       0.0586
     56 H24        63.2981   38.3184   38.0799 H           1 MOL       0.0702
     57 H25        63.5363   41.3020   38.6886 H           1 MOL       0.0654
     58 H26        60.9465   39.7673   38.1431 H           1 MOL       0.0674
     59 H27        60.4667   39.8477   40.5288 H           1 MOL       0.0850
     60 H28        61.9026   40.8369   40.8576 H           1 MOL       0.0850
     61 H29        66.8417   38.1533   38.4572 H           1 MOL       0.2095
     62 H30        59.9980   41.6238   38.8894 H           1 MOL       0.2101
     63 H31        61.8824   38.0564   39.8964 H           1 MOL       0.2348
     64 H32        62.2752   38.5768   41.4169 H           1 MOL       0.2348
@<TRIPOS>BOND
     1     1     2   1
     2     6     1   1
     3     1     7   1
     4     2     3   1
     5     2     8   1
     6     4     3   1
     7     3     9   1
     8     4     5   1
     9    10     4   1
    10     5    11   1
    11     6    10   1
    12    20     6   1
    13    12    13   1
    14    17    12   1
    15    12    18   1
    16    13    14   1
    17    13    19   1
    18    15    14   1
    19    14    20   1
    20    15    16   1
    21    21    15   1
    22    16    22   1
    23    17    21   1
    24    30    17   1
    25    24    23   1
    26    23    28   1
    27    25    24   1
    28    24    29   1
    29    25    26   1
    30    25    30   1
    31    26    27   1
    32    26    31   1
    33    27    32   1
    34    29    32   1
    35     1    33   1
    36     2    34   1
    37     3    35   1
    38     4    36   1
    39     5    37   1
    40     5    38   1
    41     6    39   1
    42     7    40   1
    43     8    41   1
    44     9    42   1
    45    11    43   1
    46    12    44   1
    47    13    45   1
    48    14    46   1
    49    15    47   1
    50    16    48   1
    51    16    49   1
    52    17    50   1
    53    18    51   1
    54    19    52   1
    55    22    53   1
    56    23    54   1
    57    23    55   1
    58    24    56   1
    59    25    57   1
    60    26    58   1
    61    27    59   1
    62    27    60   1
    63    28    61   1
    64    31    62   1
    65    32    63   1
    66    32    64   1
@<TRIPOS>SUBSTRUCTURE
     1  MOL      1

