@<TRIPOS>MOLECULE
1w3l_ligand_034
    64    66
SMALL
GAST_HUCK
****
This file was generated by PARSER (from files_GN.cpp)

@<TRIPOS>ATOM
      1 C2         62.0955   51.0384   40.4805 C.3         1 MOL       0.1341
      2 C3         62.0691   51.9144   41.7677 C.3         1 MOL       0.1141
      3 C4         60.8118   52.8261   41.8211 C.3         1 MOL       0.1119
      4 C5         59.5189   52.0223   41.5098 C.3         1 MOL       0.1130
      5 C6         58.2741   52.9267   41.3053 C.3         1 MOL       0.0730
      6 C1         60.7499   50.2634   40.3680 C.3         1 MOL       0.1884
      7 O2         63.2141   50.1569   40.5373 O.3         1 MOL      -0.3841
      8 O3         63.2372   52.7400   41.8460 O.3         1 MOL      -0.3864
      9 O4         60.7177   53.4340   43.1089 O.3         1 MOL      -0.3865
     10 O5         59.6860   51.2297   40.3081 O.3         1 MOL      -0.3405
     11 O6         57.8587   53.5452   42.5323 O.3         1 MOL      -0.3924
     12 C2         60.9554   45.6351   39.6837 C.3         1 MOL       0.1341
     13 C3         60.6323   47.1062   40.0663 C.3         1 MOL       0.1144
     14 C4         61.1401   48.1532   39.0087 C.3         1 MOL       0.1184
     15 C5         60.7065   47.6807   37.5855 C.3         1 MOL       0.1134
     16 C6         61.2809   48.5072   36.4092 C.3         1 MOL       0.0730
     17 C1         60.5883   45.3184   38.2168 C.3         1 MOL       0.1884
     18 O2         60.2639   44.7185   40.5362 O.3         1 MOL      -0.3841
     19 O3         61.2086   47.3392   41.3535 O.3         1 MOL      -0.3864
     20 O4         60.5913   49.4808   39.1689 O.3         1 MOL      -0.3401
     21 O5         61.1200   46.3266   37.3432 O.3         1 MOL      -0.3405
     22 O6         62.6333   48.1584   36.1205 O.3         1 MOL      -0.3924
     23 C6         62.9974   41.8428   37.2238 C.3         1 MOL       0.0782
     24 C5         62.3601   42.7827   36.1741 C.3         1 MOL       0.1538
     25 C4         60.9918   43.4049   36.6180 C.3         1 MOL       0.1259
     26 C3         60.3979   44.2259   35.4326 C.3         1 MOL       0.1245
     27 C2         60.4125   43.4010   34.1250 C.3         1 MOL       0.0256
     28 O6         62.0824   40.8521   37.6782 O.3         1 MOL      -0.3922
     29 O5         62.1830   42.0560   34.9387 O.3         1 MOL      -0.3215
     30 O4         61.2522   44.0984   37.8579 O.3         1 MOL      -0.3398
     31 O3         59.0501   44.6038   35.7098 O.3         1 MOL      -0.3838
     32 N1         61.7685   42.8642   33.9130 N.4         1 MOL       0.3939
     33 H1         62.2205   51.6935   39.6101 H           1 MOL       0.0671
     34 H2         62.0692   51.2526   42.6444 H           1 MOL       0.0648
     35 H3         60.9230   53.6197   41.0759 H           1 MOL       0.0647
     36 H4         59.2895   51.3434   42.3395 H           1 MOL       0.0647
     37 H5         57.4273   52.3363   40.9275 H           1 MOL       0.0584
     38 H6         58.4849   53.7224   40.5762 H           1 MOL       0.0584
     39 H7         60.6044   49.6402   41.2399 H           1 MOL       0.0938
     40 H8         63.5742   50.1645   39.6216 H           1 MOL       0.2101
     41 H9         63.9600   52.1799   42.2051 H           1 MOL       0.2100
     42 H10        61.4975   54.0215   43.1709 H           1 MOL       0.2100
     43 H11        57.5717   52.7968   43.0979 H           1 MOL       0.2095
     44 H12        62.0278   45.4602   39.8092 H           1 MOL       0.0671
     45 H13        59.5485   47.2143   40.1723 H           1 MOL       0.0648
     46 H14        62.2324   48.1887   39.0453 H           1 MOL       0.0651
     47 H15        59.6100   47.7338   37.5227 H           1 MOL       0.0647
     48 H16        61.2018   49.5779   36.6010 H           1 MOL       0.0584
     49 H17        60.6986   48.2854   35.5120 H           1 MOL       0.0584
     50 H18        59.5025   45.2286   38.1189 H           1 MOL       0.0938
     51 H19        60.6477   44.8535   41.4289 H           1 MOL       0.2101
     52 H20        62.1700   47.1756   41.2306 H           1 MOL       0.2100
     53 H21        63.1635   48.9647   36.2860 H           1 MOL       0.2095
     54 H22        63.3352   42.4161   38.0895 H           1 MOL       0.0586
     55 H23        63.8666   41.3416   36.7928 H           1 MOL       0.0586
     56 H24        63.0774   43.5934   35.9955 H           1 MOL       0.0702
     57 H25        60.2922   42.5921   36.8406 H           1 MOL       0.0654
     58 H26        60.9911   45.1316   35.2753 H           1 MOL       0.0674
     59 H27        60.1500   44.0415   33.2830 H           1 MOL       0.0850
     60 H28        59.6985   42.5759   34.1834 H           1 MOL       0.0850
     61 H29        61.9400   40.2747   36.9022 H           1 MOL       0.2095
     62 H30        58.7926   45.2108   34.9846 H           1 MOL       0.2101
     63 H31        62.4230   43.6458   33.8179 H           1 MOL       0.2348
     64 H32        61.7898   42.3306   33.0448 H           1 MOL       0.2348
@<TRIPOS>BOND
     1     1     2   1
     2     6     1   1
     3     1     7   1
     4     2     3   1
     5     2     8   1
     6     4     3   1
     7     3     9   1
     8     4     5   1
     9    10     4   1
    10     5    11   1
    11     6    10   1
    12    20     6   1
    13    12    13   1
    14    17    12   1
    15    12    18   1
    16    13    14   1
    17    13    19   1
    18    15    14   1
    19    14    20   1
    20    15    16   1
    21    21    15   1
    22    16    22   1
    23    17    21   1
    24    30    17   1
    25    24    23   1
    26    23    28   1
    27    25    24   1
    28    24    29   1
    29    25    26   1
    30    25    30   1
    31    26    27   1
    32    26    31   1
    33    27    32   1
    34    29    32   1
    35     1    33   1
    36     2    34   1
    37     3    35   1
    38     4    36   1
    39     5    37   1
    40     5    38   1
    41     6    39   1
    42     7    40   1
    43     8    41   1
    44     9    42   1
    45    11    43   1
    46    12    44   1
    47    13    45   1
    48    14    46   1
    49    15    47   1
    50    16    48   1
    51    16    49   1
    52    17    50   1
    53    18    51   1
    54    19    52   1
    55    22    53   1
    56    23    54   1
    57    23    55   1
    58    24    56   1
    59    25    57   1
    60    26    58   1
    61    27    59   1
    62    27    60   1
    63    28    61   1
    64    31    62   1
    65    32    63   1
    66    32    64   1
@<TRIPOS>SUBSTRUCTURE
     1  MOL      1

