@<TRIPOS>MOLECULE
1w3l_ligand_061
    64    66
SMALL
GAST_HUCK
****
This file was generated by PARSER (from files_GN.cpp)

@<TRIPOS>ATOM
      1 C2         53.6468   46.2817   40.7970 C.3         1 MOL       0.1341
      2 C3         52.2571   46.6085   40.1783 C.3         1 MOL       0.1141
      3 C4         52.2264   48.0439   39.5839 C.3         1 MOL       0.1119
      4 C5         53.4534   48.2849   38.6467 C.3         1 MOL       0.1130
      5 C6         53.5774   49.7513   38.1733 C.3         1 MOL       0.0730
      6 C1         54.7626   46.5573   39.7553 C.3         1 MOL       0.1884
      7 O2         53.6873   44.9206   41.2291 O.3         1 MOL      -0.3841
      8 O3         51.2279   46.4768   41.1647 O.3         1 MOL      -0.3864
      9 O4         51.0073   48.2387   38.8632 O.3         1 MOL      -0.3865
     10 O5         54.6798   47.9328   39.3243 O.3         1 MOL      -0.3405
     11 O6         52.4729   50.1450   37.3645 O.3         1 MOL      -0.3924
     12 C2         59.8079   46.0715   39.8795 C.3         1 MOL       0.1341
     13 C3         58.4115   46.0474   40.5574 C.3         1 MOL       0.1144
     14 C4         57.2580   46.3973   39.5666 C.3         1 MOL       0.1184
     15 C5         57.3639   45.4986   38.2839 C.3         1 MOL       0.1134
     16 C6         56.4627   45.9397   37.0837 C.3         1 MOL       0.0730
     17 C1         59.7953   45.1316   38.6465 C.3         1 MOL       0.1884
     18 O2         60.8038   45.6459   40.8197 O.3         1 MOL      -0.3841
     19 O3         58.4222   46.9709   41.6500 O.3         1 MOL      -0.3864
     20 O4         56.0426   46.2449   40.3398 O.3         1 MOL      -0.3401
     21 O5         58.7176   45.5073   37.7704 O.3         1 MOL      -0.3405
     22 O6         55.5037   44.9424   36.7369 O.3         1 MOL      -0.3924
     23 C6         63.6455   45.8522   36.7094 C.3         1 MOL       0.0782
     24 C5         62.5166   44.9927   36.0545 C.3         1 MOL       0.1538
     25 C4         61.5978   44.2784   37.1019 C.3         1 MOL       0.1259
     26 C3         60.6140   43.3267   36.3547 C.3         1 MOL       0.1245
     27 C2         61.3526   42.4762   35.2796 C.3         1 MOL       0.0256
     28 O6         63.5070   47.2317   36.3596 O.3         1 MOL      -0.3922
     29 O5         63.1243   44.0300   35.1770 O.3         1 MOL      -0.3215
     30 O4         60.9994   45.3279   37.8933 O.3         1 MOL      -0.3398
     31 O3         59.9394   42.4598   37.2692 O.3         1 MOL      -0.3838
     32 N1         62.1907   43.3519   34.4355 N.4         1 MOL       0.3939
     33 H1         53.8078   46.9163   41.6723 H           1 MOL       0.0671
     34 H2         52.0442   45.8932   39.3746 H           1 MOL       0.0648
     35 H3         52.2583   48.7669   40.4052 H           1 MOL       0.0647
     36 H4         53.3495   47.6560   37.7551 H           1 MOL       0.0647
     37 H5         54.4865   49.8679   37.5823 H           1 MOL       0.0584
     38 H6         53.6386   50.4208   39.0319 H           1 MOL       0.0584
     39 H7         54.6041   45.8844   38.9151 H           1 MOL       0.0938
     40 H8         53.5020   44.3872   40.4266 H           1 MOL       0.2101
     41 H9         51.1818   45.5166   41.3582 H           1 MOL       0.2100
     42 H10        50.3096   48.3315   39.5457 H           1 MOL       0.2100
     43 H11        52.4350   49.4866   36.6373 H           1 MOL       0.2095
     44 H12        60.0376   47.0917   39.5600 H           1 MOL       0.0671
     45 H13        58.2330   45.0484   40.9711 H           1 MOL       0.0648
     46 H14        57.3915   47.4421   39.2697 H           1 MOL       0.0651
     47 H15        57.1115   44.4712   38.5625 H           1 MOL       0.0647
     48 H16        57.0725   46.1066   36.1868 H           1 MOL       0.0584
     49 H17        55.9510   46.8785   37.3076 H           1 MOL       0.0584
     50 H18        59.6982   44.0818   38.9679 H           1 MOL       0.0938
     51 H19        61.6531   46.0045   40.4869 H           1 MOL       0.2101
     52 H20        57.6010   46.7933   42.1581 H           1 MOL       0.2100
     53 H21        54.6692   45.4363   36.5866 H           1 MOL       0.2095
     54 H22        64.6374   45.5343   36.3693 H           1 MOL       0.0586
     55 H23        63.6408   45.7749   37.8033 H           1 MOL       0.0586
     56 H24        61.8917   45.6643   35.4556 H           1 MOL       0.0702
     57 H25        62.2138   43.6684   37.7604 H           1 MOL       0.0654
     58 H26        59.8518   43.9274   35.8456 H           1 MOL       0.0674
     59 H27        60.6285   41.9484   34.6463 H           1 MOL       0.0850
     60 H28        61.9972   41.7282   35.7598 H           1 MOL       0.0850
     61 H29        63.4681   47.7238   37.2127 H           1 MOL       0.2095
     62 H30        60.1739   41.5261   37.0082 H           1 MOL       0.2101
     63 H31        61.5940   44.0124   33.9331 H           1 MOL       0.2348
     64 H32        62.6799   42.7619   33.7572 H           1 MOL       0.2348
@<TRIPOS>BOND
     1     1     2   1
     2     6     1   1
     3     1     7   1
     4     2     3   1
     5     2     8   1
     6     4     3   1
     7     3     9   1
     8     4     5   1
     9    10     4   1
    10     5    11   1
    11     6    10   1
    12    20     6   1
    13    12    13   1
    14    17    12   1
    15    12    18   1
    16    13    14   1
    17    13    19   1
    18    15    14   1
    19    14    20   1
    20    15    16   1
    21    21    15   1
    22    16    22   1
    23    17    21   1
    24    30    17   1
    25    24    23   1
    26    23    28   1
    27    25    24   1
    28    24    29   1
    29    25    26   1
    30    25    30   1
    31    26    27   1
    32    26    31   1
    33    27    32   1
    34    29    32   1
    35     1    33   1
    36     2    34   1
    37     3    35   1
    38     4    36   1
    39     5    37   1
    40     5    38   1
    41     6    39   1
    42     7    40   1
    43     8    41   1
    44     9    42   1
    45    11    43   1
    46    12    44   1
    47    13    45   1
    48    14    46   1
    49    15    47   1
    50    16    48   1
    51    16    49   1
    52    17    50   1
    53    18    51   1
    54    19    52   1
    55    22    53   1
    56    23    54   1
    57    23    55   1
    58    24    56   1
    59    25    57   1
    60    26    58   1
    61    27    59   1
    62    27    60   1
    63    28    61   1
    64    31    62   1
    65    32    63   1
    66    32    64   1
@<TRIPOS>SUBSTRUCTURE
     1  MOL      1

