@<TRIPOS>MOLECULE
1w3l_ligand_083
    64    66
SMALL
GAST_HUCK
****
This file was generated by PARSER (from files_GN.cpp)

@<TRIPOS>ATOM
      1 C2         61.0178   43.6949   35.1613 C.3         1 MOL       0.1341
      2 C3         61.4641   42.2328   35.4293 C.3         1 MOL       0.1141
      3 C4         62.9025   42.1951   36.0193 C.3         1 MOL       0.1119
      4 C5         63.0226   43.1427   37.2568 C.3         1 MOL       0.1130
      5 C6         64.4860   43.3679   37.7127 C.3         1 MOL       0.0730
      6 C1         61.1631   44.5301   36.4632 C.3         1 MOL       0.1884
      7 O2         59.6665   43.7417   34.7158 O.3         1 MOL      -0.3841
      8 O3         61.3910   41.4517   34.2332 O.3         1 MOL      -0.3864
      9 O4         63.2481   40.8624   36.4131 O.3         1 MOL      -0.3865
     10 O5         62.5014   44.4519   36.9792 O.3         1 MOL      -0.3405
     11 O6         65.1562   44.3687   36.9396 O.3         1 MOL      -0.3924
     12 C2         58.6277   47.9427   38.4532 C.3         1 MOL       0.1341
     13 C3         59.8536   47.0457   38.1206 C.3         1 MOL       0.1144
     14 C4         59.8405   46.6445   36.6133 C.3         1 MOL       0.1184
     15 C5         59.7674   47.9412   35.7453 C.3         1 MOL       0.1134
     16 C6         59.7991   47.7140   34.2036 C.3         1 MOL       0.0730
     17 C1         58.5498   49.1454   37.4749 C.3         1 MOL       0.1884
     18 O2         58.7162   48.4060   39.8024 O.3         1 MOL      -0.3841
     19 O3         59.8283   45.9254   39.0020 O.3         1 MOL      -0.3864
     20 O4         61.0296   45.9404   36.2099 O.3         1 MOL      -0.3401
     21 O5         58.5840   48.6980   36.0988 O.3         1 MOL      -0.3405
     22 O6         59.8299   46.3523   33.7894 O.3         1 MOL      -0.3924
     23 C6         57.4991   52.9538   39.8716 C.3         1 MOL       0.0782
     24 C5         57.0305   51.5543   39.3812 C.3         1 MOL       0.1538
     25 C4         57.2988   51.2595   37.8679 C.3         1 MOL       0.1259
     26 C3         56.1988   51.8673   36.9509 C.3         1 MOL       0.1245
     27 C2         54.7831   51.6171   37.5326 C.3         1 MOL       0.0256
     28 O6         58.8695   52.9051   40.2653 O.3         1 MOL      -0.3922
     29 O5         55.6434   51.3123   39.7119 O.3         1 MOL      -0.3215
     30 O4         57.2936   49.8264   37.6774 O.3         1 MOL      -0.3398
     31 O3         56.4082   53.2696   36.7702 O.3         1 MOL      -0.3838
     32 N1         54.7537   52.0304   38.9502 N.4         1 MOL       0.3939
     33 H1         61.6510   44.1189   34.3780 H           1 MOL       0.0671
     34 H2         60.7769   41.7777   36.1512 H           1 MOL       0.0648
     35 H3         63.6090   42.5156   35.2490 H           1 MOL       0.0647
     36 H4         62.4621   42.6982   38.0835 H           1 MOL       0.0647
     37 H5         65.0551   42.4381   37.6782 H           1 MOL       0.0584
     38 H6         64.4822   43.7279   38.7425 H           1 MOL       0.0584
     39 H7         60.4536   44.1566   37.2083 H           1 MOL       0.0938
     40 H8         59.6288   43.2202   33.8850 H           1 MOL       0.2101
     41 H9         62.1502   41.7216   33.6785 H           1 MOL       0.2100
     42 H10        63.0731   40.2974   35.6286 H           1 MOL       0.2100
     43 H11        64.7397   44.3352   36.0492 H           1 MOL       0.2095
     44 H12        57.7153   47.3441   38.3631 H           1 MOL       0.0671
     45 H13        60.7686   47.6062   38.3352 H           1 MOL       0.0648
     46 H14        58.9561   46.0322   36.4128 H           1 MOL       0.0651
     47 H15        60.6386   48.5640   35.9786 H           1 MOL       0.0647
     48 H16        60.6858   48.1995   33.7827 H           1 MOL       0.0584
     49 H17        58.9144   48.1611   33.7459 H           1 MOL       0.0584
     50 H18        59.4053   49.8005   37.6803 H           1 MOL       0.0938
     51 H19        59.5454   48.9246   39.8373 H           1 MOL       0.2101
     52 H20        60.7372   45.5663   38.9850 H           1 MOL       0.2100
     53 H21        60.5763   45.9579   34.3038 H           1 MOL       0.2095
     54 H22        56.9011   53.2619   40.7364 H           1 MOL       0.0586
     55 H23        57.3792   53.7042   39.0906 H           1 MOL       0.0586
     56 H24        57.5873   50.8197   39.9699 H           1 MOL       0.0702
     57 H25        58.2518   51.7011   37.5680 H           1 MOL       0.0654
     58 H26        56.2687   51.4071   35.9591 H           1 MOL       0.0674
     59 H27        54.5262   50.5556   37.4632 H           1 MOL       0.0850
     60 H28        54.0359   52.1902   36.9728 H           1 MOL       0.0850
     61 H29        58.8427   52.9774   41.2499 H           1 MOL       0.2095
     62 H30        55.9066   53.4993   35.9539 H           1 MOL       0.2101
     63 H31        53.8099   51.8772   39.3187 H           1 MOL       0.2348
     64 H32        54.9730   53.0297   39.0215 H           1 MOL       0.2348
@<TRIPOS>BOND
     1     1     2   1
     2     6     1   1
     3     1     7   1
     4     2     3   1
     5     2     8   1
     6     4     3   1
     7     3     9   1
     8     4     5   1
     9    10     4   1
    10     5    11   1
    11     6    10   1
    12    20     6   1
    13    12    13   1
    14    17    12   1
    15    12    18   1
    16    13    14   1
    17    13    19   1
    18    15    14   1
    19    14    20   1
    20    15    16   1
    21    21    15   1
    22    16    22   1
    23    17    21   1
    24    30    17   1
    25    24    23   1
    26    23    28   1
    27    25    24   1
    28    24    29   1
    29    25    26   1
    30    25    30   1
    31    26    27   1
    32    26    31   1
    33    27    32   1
    34    29    32   1
    35     1    33   1
    36     2    34   1
    37     3    35   1
    38     4    36   1
    39     5    37   1
    40     5    38   1
    41     6    39   1
    42     7    40   1
    43     8    41   1
    44     9    42   1
    45    11    43   1
    46    12    44   1
    47    13    45   1
    48    14    46   1
    49    15    47   1
    50    16    48   1
    51    16    49   1
    52    17    50   1
    53    18    51   1
    54    19    52   1
    55    22    53   1
    56    23    54   1
    57    23    55   1
    58    24    56   1
    59    25    57   1
    60    26    58   1
    61    27    59   1
    62    27    60   1
    63    28    61   1
    64    31    62   1
    65    32    63   1
    66    32    64   1
@<TRIPOS>SUBSTRUCTURE
     1  MOL      1

