@<TRIPOS>MOLECULE
1w3l_ligand_015
    64    66
SMALL
GAST_HUCK
****
This file was generated by PARSER (from files_GN.cpp)

@<TRIPOS>ATOM
      1 C2         61.4139   47.7080   37.1522 C.3         1 MOL       0.1341
      2 C3         60.7094   48.5744   38.2256 C.3         1 MOL       0.1141
      3 C4         59.1646   48.4834   38.0904 C.3         1 MOL       0.1119
      4 C5         58.6990   46.9937   38.0557 C.3         1 MOL       0.1130
      5 C6         57.1857   46.8399   37.7540 C.3         1 MOL       0.0730
      6 C1         60.8645   46.2605   37.2003 C.3         1 MOL       0.1884
      7 O2         62.8257   47.6972   37.3638 O.3         1 MOL      -0.3841
      8 O3         61.1256   49.9308   38.0954 O.3         1 MOL      -0.3864
      9 O4         58.5486   49.1871   39.1703 O.3         1 MOL      -0.3865
     10 O5         59.4279   46.2415   37.0579 O.3         1 MOL      -0.3405
     11 O6         56.9246   46.7077   36.3589 O.3         1 MOL      -0.3924
     12 C2         61.3122   41.8604   34.9871 C.3         1 MOL       0.1341
     13 C3         61.0959   43.4030   34.9230 C.3         1 MOL       0.1144
     14 C4         61.5089   44.0844   36.2594 C.3         1 MOL       0.1184
     15 C5         62.9611   43.6487   36.6264 C.3         1 MOL       0.1134
     16 C6         63.4945   44.1475   37.9870 C.3         1 MOL       0.0730
     17 C1         62.7548   41.5255   35.4579 C.3         1 MOL       0.1884
     18 O2         61.0472   41.2632   33.7196 O.3         1 MOL      -0.3841
     19 O3         59.7305   43.7128   34.6396 O.3         1 MOL      -0.3864
     20 O4         61.4417   45.5178   36.1052 O.3         1 MOL      -0.3401
     21 O5         62.9987   42.2066   36.7033 O.3         1 MOL      -0.3405
     22 O6         62.5718   43.8404   39.0303 O.3         1 MOL      -0.3924
     23 C6         65.7263   39.3958   34.6369 C.3         1 MOL       0.0782
     24 C5         64.9103   38.6392   35.7292 C.3         1 MOL       0.1538
     25 C4         63.9129   39.5683   36.4828 C.3         1 MOL       0.1259
     26 C3         63.1789   38.7504   37.5856 C.3         1 MOL       0.1245
     27 C2         64.2081   38.0234   38.4845 C.3         1 MOL       0.0256
     28 O6         67.0990   39.0192   34.6106 O.3         1 MOL      -0.3922
     29 O5         65.7814   38.0183   36.7043 O.3         1 MOL      -0.3215
     30 O4         62.9210   40.1003   35.5698 O.3         1 MOL      -0.3398
     31 O3         62.3269   39.5977   38.3569 O.3         1 MOL      -0.3838
     32 N1         65.1091   37.2340   37.6188 N.4         1 MOL       0.3939
     33 H1         61.2233   48.1265   36.1606 H           1 MOL       0.0671
     34 H2         61.0041   48.2283   39.2218 H           1 MOL       0.0648
     35 H3         58.8670   48.9748   37.1610 H           1 MOL       0.0647
     36 H4         58.8831   46.5517   39.0419 H           1 MOL       0.0647
     37 H5         56.6222   47.6919   38.1423 H           1 MOL       0.0584
     38 H6         56.8116   45.9394   38.2443 H           1 MOL       0.0584
     39 H7         61.1317   45.8224   38.1702 H           1 MOL       0.0938
     40 H8         62.9576   47.3718   38.2801 H           1 MOL       0.2101
     41 H9         62.1048   49.9153   38.1466 H           1 MOL       0.2100
     42 H10        58.8224   48.7100   39.9819 H           1 MOL       0.2100
     43 H11        57.2960   47.5130   35.9414 H           1 MOL       0.2095
     44 H12        60.6005   41.4436   35.7055 H           1 MOL       0.0671
     45 H13        61.7006   43.8161   34.1105 H           1 MOL       0.0648
     46 H14        60.8174   43.7155   37.0309 H           1 MOL       0.0651
     47 H15        63.6583   44.0063   35.8590 H           1 MOL       0.0647
     48 H16        63.6743   45.2182   37.9670 H           1 MOL       0.0584
     49 H17        64.4513   43.6554   38.1921 H           1 MOL       0.0584
     50 H18        63.4763   41.8706   34.7199 H           1 MOL       0.0938
     51 H19        61.8144   41.4980   33.1568 H           1 MOL       0.2101
     52 H20        59.5185   43.2401   33.8094 H           1 MOL       0.2100
     53 H21        63.1291   43.4651   39.7477 H           1 MOL       0.2095
     54 H22        65.6876   40.4768   34.7770 H           1 MOL       0.0586
     55 H23        65.3088   39.1790   33.6511 H           1 MOL       0.0586
     56 H24        64.3510   37.8438   35.2275 H           1 MOL       0.0702
     57 H25        64.5068   40.3408   36.9863 H           1 MOL       0.0654
     58 H26        62.5431   37.9904   37.1111 H           1 MOL       0.0674
     59 H27        63.6932   37.3490   39.1687 H           1 MOL       0.0850
     60 H28        64.7852   38.7463   39.0668 H           1 MOL       0.0850
     61 H29        67.3617   38.9164   35.5503 H           1 MOL       0.2095
     62 H30        61.5680   39.7684   37.7521 H           1 MOL       0.2101
     63 H31        64.5585   36.5231   37.1186 H           1 MOL       0.2348
     64 H32        65.7977   36.7612   38.2110 H           1 MOL       0.2348
@<TRIPOS>BOND
     1     1     2   1
     2     6     1   1
     3     1     7   1
     4     2     3   1
     5     2     8   1
     6     4     3   1
     7     3     9   1
     8     4     5   1
     9    10     4   1
    10     5    11   1
    11     6    10   1
    12    20     6   1
    13    12    13   1
    14    17    12   1
    15    12    18   1
    16    13    14   1
    17    13    19   1
    18    15    14   1
    19    14    20   1
    20    15    16   1
    21    21    15   1
    22    16    22   1
    23    17    21   1
    24    30    17   1
    25    24    23   1
    26    23    28   1
    27    25    24   1
    28    24    29   1
    29    25    26   1
    30    25    30   1
    31    26    27   1
    32    26    31   1
    33    27    32   1
    34    29    32   1
    35     1    33   1
    36     2    34   1
    37     3    35   1
    38     4    36   1
    39     5    37   1
    40     5    38   1
    41     6    39   1
    42     7    40   1
    43     8    41   1
    44     9    42   1
    45    11    43   1
    46    12    44   1
    47    13    45   1
    48    14    46   1
    49    15    47   1
    50    16    48   1
    51    16    49   1
    52    17    50   1
    53    18    51   1
    54    19    52   1
    55    22    53   1
    56    23    54   1
    57    23    55   1
    58    24    56   1
    59    25    57   1
    60    26    58   1
    61    27    59   1
    62    27    60   1
    63    28    61   1
    64    31    62   1
    65    32    63   1
    66    32    64   1
@<TRIPOS>SUBSTRUCTURE
     1  MOL      1

