@<TRIPOS>MOLECULE
1w3l_ligand_022
    64    66
SMALL
GAST_HUCK
****
This file was generated by PARSER (from files_GN.cpp)

@<TRIPOS>ATOM
      1 C2         58.7871   50.9842   40.7144 C.3         1 MOL       0.1341
      2 C3         57.4859   51.8403   40.6662 C.3         1 MOL       0.1141
      3 C4         57.2465   52.4157   39.2424 C.3         1 MOL       0.1119
      4 C5         57.3257   51.2823   38.1776 C.3         1 MOL       0.1130
      5 C6         57.2117   51.8014   36.7242 C.3         1 MOL       0.0730
      6 C1         58.7764   49.9265   39.5806 C.3         1 MOL       0.1884
      7 O2         58.9065   50.3268   41.9764 O.3         1 MOL      -0.3841
      8 O3         57.5519   52.9135   41.6080 O.3         1 MOL      -0.3864
      9 O4         55.9814   53.0792   39.1904 O.3         1 MOL      -0.3865
     10 O5         58.5736   50.5679   38.3071 O.3         1 MOL      -0.3405
     11 O6         58.4748   52.1767   36.1786 O.3         1 MOL      -0.3924
     12 C2         59.3942   45.4994   38.5729 C.3         1 MOL       0.1341
     13 C3         59.1124   46.8434   39.3068 C.3         1 MOL       0.1144
     14 C4         60.1856   47.9221   38.9737 C.3         1 MOL       0.1184
     15 C5         60.3858   48.0396   37.4278 C.3         1 MOL       0.1134
     16 C6         61.5948   48.9373   37.0457 C.3         1 MOL       0.0730
     17 C1         59.5804   45.7661   37.0491 C.3         1 MOL       0.1884
     18 O2         58.3226   44.5770   38.7731 O.3         1 MOL      -0.3841
     19 O3         59.0865   46.6466   40.7165 O.3         1 MOL      -0.3864
     20 O4         60.0268   49.2104   39.6176 O.3         1 MOL      -0.3401
     21 O5         60.6250   46.7389   36.8454 O.3         1 MOL      -0.3405
     22 O6         62.3279   48.3784   35.9525 O.3         1 MOL      -0.3924
     23 C6         63.6187   44.2178   35.6857 C.3         1 MOL       0.0782
     24 C5         62.1238   44.4768   35.3466 C.3         1 MOL       0.1538
     25 C4         61.1119   43.8948   36.3956 C.3         1 MOL       0.1259
     26 C3         60.8478   42.3772   36.1564 C.3         1 MOL       0.1245
     27 C2         60.6306   42.0842   34.6484 C.3         1 MOL       0.0256
     28 O6         64.0609   45.0418   36.7626 O.3         1 MOL      -0.3922
     29 O5         61.7975   44.0364   34.0103 O.3         1 MOL      -0.3215
     30 O4         59.8369   44.5673   36.2801 O.3         1 MOL      -0.3398
     31 O3         61.9343   41.5876   36.6494 O.3         1 MOL      -0.3838
     32 N1         61.7400   42.6753   33.8792 N.4         1 MOL       0.3939
     33 H1         59.6551   51.6382   40.5872 H           1 MOL       0.0671
     34 H2         56.6336   51.2060   40.9412 H           1 MOL       0.0648
     35 H3         58.0191   53.1630   39.0326 H           1 MOL       0.0647
     36 H4         56.4961   50.5847   38.3359 H           1 MOL       0.0647
     37 H5         56.5494   52.6680   36.6889 H           1 MOL       0.0584
     38 H6         56.7813   51.0180   36.0970 H           1 MOL       0.0584
     39 H7         57.9679   49.2216   39.7794 H           1 MOL       0.0938
     40 H8         59.1999   51.0131   42.6110 H           1 MOL       0.2101
     41 H9         57.3930   52.5053   42.4855 H           1 MOL       0.2100
     42 H10        55.3119   52.3847   39.3660 H           1 MOL       0.2100
     43 H11        58.7747   51.4012   35.6583 H           1 MOL       0.2095
     44 H12        60.3077   45.0485   38.9705 H           1 MOL       0.0671
     45 H13        58.1314   47.1979   38.9907 H           1 MOL       0.0648
     46 H14        61.1282   47.5392   39.3697 H           1 MOL       0.0651
     47 H15        59.4945   48.4775   36.9590 H           1 MOL       0.0647
     48 H16        62.2831   49.0427   37.8906 H           1 MOL       0.0584
     49 H17        61.2425   49.9355   36.7544 H           1 MOL       0.0584
     50 H18        58.6367   46.1581   36.6477 H           1 MOL       0.0938
     51 H19        58.4344   44.2453   39.6893 H           1 MOL       0.2101
     52 H20        58.2193   46.2404   40.9219 H           1 MOL       0.2100
     53 H21        62.8527   49.1253   35.5982 H           1 MOL       0.2095
     54 H22        64.2315   44.4406   34.8089 H           1 MOL       0.0586
     55 H23        63.7927   43.1751   35.9564 H           1 MOL       0.0586
     56 H24        62.0168   45.5597   35.3094 H           1 MOL       0.0702
     57 H25        61.5083   44.0106   37.4075 H           1 MOL       0.0654
     58 H26        59.9541   42.0646   36.7079 H           1 MOL       0.0674
     59 H27        59.6813   42.5085   34.3109 H           1 MOL       0.0850
     60 H28        60.6113   41.0084   34.4682 H           1 MOL       0.0850
     61 H29        64.3540   45.8796   36.3451 H           1 MOL       0.2095
     62 H30        61.7170   40.6595   36.4106 H           1 MOL       0.2101
     63 H31        61.6557   42.4371   32.8917 H           1 MOL       0.2348
     64 H32        62.6220   42.2794   34.1963 H           1 MOL       0.2348
@<TRIPOS>BOND
     1     1     2   1
     2     6     1   1
     3     1     7   1
     4     2     3   1
     5     2     8   1
     6     4     3   1
     7     3     9   1
     8     4     5   1
     9    10     4   1
    10     5    11   1
    11     6    10   1
    12    20     6   1
    13    12    13   1
    14    17    12   1
    15    12    18   1
    16    13    14   1
    17    13    19   1
    18    15    14   1
    19    14    20   1
    20    15    16   1
    21    21    15   1
    22    16    22   1
    23    17    21   1
    24    30    17   1
    25    24    23   1
    26    23    28   1
    27    25    24   1
    28    24    29   1
    29    25    26   1
    30    25    30   1
    31    26    27   1
    32    26    31   1
    33    27    32   1
    34    29    32   1
    35     1    33   1
    36     2    34   1
    37     3    35   1
    38     4    36   1
    39     5    37   1
    40     5    38   1
    41     6    39   1
    42     7    40   1
    43     8    41   1
    44     9    42   1
    45    11    43   1
    46    12    44   1
    47    13    45   1
    48    14    46   1
    49    15    47   1
    50    16    48   1
    51    16    49   1
    52    17    50   1
    53    18    51   1
    54    19    52   1
    55    22    53   1
    56    23    54   1
    57    23    55   1
    58    24    56   1
    59    25    57   1
    60    26    58   1
    61    27    59   1
    62    27    60   1
    63    28    61   1
    64    31    62   1
    65    32    63   1
    66    32    64   1
@<TRIPOS>SUBSTRUCTURE
     1  MOL      1

