@<TRIPOS>MOLECULE
1w3l_ligand_068
    64    66
SMALL
GAST_HUCK
****
This file was generated by PARSER (from files_GN.cpp)

@<TRIPOS>ATOM
      1 C2         61.0727   44.9358   35.7481 C.3         1 MOL       0.1341
      2 C3         60.7744   43.7443   34.7994 C.3         1 MOL       0.1141
      3 C4         61.7067   42.5439   35.1091 C.3         1 MOL       0.1119
      4 C5         61.6454   42.1885   36.6260 C.3         1 MOL       0.1130
      5 C6         62.6800   41.1031   37.0119 C.3         1 MOL       0.0730
      6 C1         61.0279   44.4736   37.2304 C.3         1 MOL       0.1884
      7 O2         60.1429   45.9933   35.5341 O.3         1 MOL      -0.3841
      8 O3         60.9563   44.1478   33.4426 O.3         1 MOL      -0.3864
      9 O4         61.3218   41.4308   34.2961 O.3         1 MOL      -0.3865
     10 O5         61.9200   43.3584   37.4299 O.3         1 MOL      -0.3405
     11 O6         62.1719   40.2790   38.0598 O.3         1 MOL      -0.3924
     12 C2         59.7577   47.4099   40.8884 C.3         1 MOL       0.1341
     13 C3         60.4023   46.2119   40.1296 C.3         1 MOL       0.1144
     14 C4         60.6252   46.5039   38.6164 C.3         1 MOL       0.1184
     15 C5         61.2665   47.9103   38.4061 C.3         1 MOL       0.1134
     16 C6         61.2081   48.3678   36.9250 C.3         1 MOL       0.0730
     17 C1         60.5756   48.7007   40.6010 C.3         1 MOL       0.1884
     18 O2         59.7138   47.0975   42.2824 O.3         1 MOL      -0.3841
     19 O3         59.5766   45.0551   40.2729 O.3         1 MOL      -0.3864
     20 O4         61.5338   45.5200   38.0765 O.3         1 MOL      -0.3401
     21 O5         60.5875   48.9174   39.1786 O.3         1 MOL      -0.3405
     22 O6         61.3197   49.7829   36.8271 O.3         1 MOL      -0.3924
     23 C6         58.7737   52.5447   41.7455 C.3         1 MOL       0.0782
     24 C5         60.1628   52.0369   42.2170 C.3         1 MOL       0.1538
     25 C4         60.2221   50.4809   42.4004 C.3         1 MOL       0.1259
     26 C3         61.5820   50.0844   43.0578 C.3         1 MOL       0.1245
     27 C2         61.9150   51.0002   44.2664 C.3         1 MOL       0.0256
     28 O6         57.7194   52.1391   42.6212 O.3         1 MOL      -0.3922
     29 O5         60.4926   52.7138   43.4502 O.3         1 MOL      -0.3215
     30 O4         59.9973   49.9231   41.0827 O.3         1 MOL      -0.3398
     31 O3         61.5448   48.7310   43.5228 O.3         1 MOL      -0.3838
     32 N1         61.7648   52.4191   43.8753 N.4         1 MOL       0.3939
     33 H1         62.0744   45.3204   35.5316 H           1 MOL       0.0671
     34 H2         59.7312   43.4311   34.9286 H           1 MOL       0.0648
     35 H3         62.7326   42.8224   34.8553 H           1 MOL       0.0647
     36 H4         60.6466   41.8027   36.8691 H           1 MOL       0.0647
     37 H5         63.6096   41.5670   37.3514 H           1 MOL       0.0584
     38 H6         62.8969   40.4676   36.1511 H           1 MOL       0.0584
     39 H7         60.0132   44.1748   37.5157 H           1 MOL       0.0938
     40 H8         60.4965   46.4973   34.7686 H           1 MOL       0.2101
     41 H9         60.1521   43.8476   32.9715 H           1 MOL       0.2100
     42 H10        61.9434   41.4409   33.5358 H           1 MOL       0.2100
     43 H11        62.9037   39.6600   38.2727 H           1 MOL       0.2095
     44 H12        58.7320   47.5500   40.5331 H           1 MOL       0.0671
     45 H13        61.3671   45.9854   40.5968 H           1 MOL       0.0648
     46 H14        59.6503   46.4942   38.1190 H           1 MOL       0.0651
     47 H15        62.3221   47.8837   38.7071 H           1 MOL       0.0647
     48 H16        60.2532   48.0810   36.4775 H           1 MOL       0.0584
     49 H17        62.0173   47.9141   36.3470 H           1 MOL       0.0584
     50 H18        61.6020   48.6119   40.9662 H           1 MOL       0.0938
     51 H19        59.1157   47.7602   42.6829 H           1 MOL       0.2101
     52 H20        59.6253   44.8071   41.2228 H           1 MOL       0.2100
     53 H21        62.2751   49.9862   36.8611 H           1 MOL       0.2095
     54 H22        58.5528   52.1684   40.7440 H           1 MOL       0.0586
     55 H23        58.7872   53.6394   41.6986 H           1 MOL       0.0586
     56 H24        60.8933   52.3267   41.4458 H           1 MOL       0.0702
     57 H25        59.4145   50.1848   43.0739 H           1 MOL       0.0654
     58 H26        62.3843   50.1695   42.3077 H           1 MOL       0.0674
     59 H27        62.9466   50.8325   44.5937 H           1 MOL       0.0850
     60 H28        61.2440   50.7909   45.1023 H           1 MOL       0.0850
     61 H29        57.8943   52.6087   43.4655 H           1 MOL       0.2095
     62 H30        62.4858   48.4783   43.6527 H           1 MOL       0.2101
     63 H31        62.4385   52.6336   43.1269 H           1 MOL       0.2348
     64 H32        61.9778   53.0059   44.6872 H           1 MOL       0.2348
@<TRIPOS>BOND
     1     1     2   1
     2     6     1   1
     3     1     7   1
     4     2     3   1
     5     2     8   1
     6     4     3   1
     7     3     9   1
     8     4     5   1
     9    10     4   1
    10     5    11   1
    11     6    10   1
    12    20     6   1
    13    12    13   1
    14    17    12   1
    15    12    18   1
    16    13    14   1
    17    13    19   1
    18    15    14   1
    19    14    20   1
    20    15    16   1
    21    21    15   1
    22    16    22   1
    23    17    21   1
    24    30    17   1
    25    24    23   1
    26    23    28   1
    27    25    24   1
    28    24    29   1
    29    25    26   1
    30    25    30   1
    31    26    27   1
    32    26    31   1
    33    27    32   1
    34    29    32   1
    35     1    33   1
    36     2    34   1
    37     3    35   1
    38     4    36   1
    39     5    37   1
    40     5    38   1
    41     6    39   1
    42     7    40   1
    43     8    41   1
    44     9    42   1
    45    11    43   1
    46    12    44   1
    47    13    45   1
    48    14    46   1
    49    15    47   1
    50    16    48   1
    51    16    49   1
    52    17    50   1
    53    18    51   1
    54    19    52   1
    55    22    53   1
    56    23    54   1
    57    23    55   1
    58    24    56   1
    59    25    57   1
    60    26    58   1
    61    27    59   1
    62    27    60   1
    63    28    61   1
    64    31    62   1
    65    32    63   1
    66    32    64   1
@<TRIPOS>SUBSTRUCTURE
     1  MOL      1

