@<TRIPOS>MOLECULE
1w3l_ligand_042
    64    66
SMALL
GAST_HUCK
****
This file was generated by PARSER (from files_GN.cpp)

@<TRIPOS>ATOM
      1 C2         59.3495   49.9605   41.7219 C.3         1 MOL       0.1341
      2 C3         58.5607   50.0010   43.0592 C.3         1 MOL       0.1141
      3 C4         57.0916   50.4546   42.8282 C.3         1 MOL       0.1119
      4 C5         56.4232   49.6179   41.6929 C.3         1 MOL       0.1130
      5 C6         55.0194   50.1439   41.2994 C.3         1 MOL       0.0730
      6 C1         58.5804   49.0960   40.6882 C.3         1 MOL       0.1884
      7 O2         60.6561   49.4330   41.9424 O.3         1 MOL      -0.3841
      8 O3         59.2227   50.8764   43.9690 O.3         1 MOL      -0.3864
      9 O4         56.3397   50.3140   44.0359 O.3         1 MOL      -0.3865
     10 O5         57.2477   49.6169   40.5057 O.3         1 MOL      -0.3405
     11 O6         55.0701   51.4683   40.7750 O.3         1 MOL      -0.3924
     12 C2         59.5541   46.0275   37.2255 C.3         1 MOL       0.1341
     13 C3         58.8414   47.1881   37.9646 C.3         1 MOL       0.1144
     14 C4         59.8378   47.9691   38.8725 C.3         1 MOL       0.1184
     15 C5         61.1123   48.3798   38.0692 C.3         1 MOL       0.1134
     16 C6         62.1822   49.0246   38.9920 C.3         1 MOL       0.0730
     17 C1         60.8110   46.5578   36.4680 C.3         1 MOL       0.1884
     18 O2         58.6507   45.3791   36.3352 O.3         1 MOL      -0.3841
     19 O3         57.7700   46.6605   38.7480 O.3         1 MOL      -0.3864
     20 O4         59.2116   49.1616   39.3948 O.3         1 MOL      -0.3401
     21 O5         61.6865   47.2275   37.4009 O.3         1 MOL      -0.3405
     22 O6         63.5082   48.7673   38.5334 O.3         1 MOL      -0.3924
     23 C6         63.7953   44.3509   37.3707 C.3         1 MOL       0.0782
     24 C5         63.0620   43.6753   36.1862 C.3         1 MOL       0.1538
     25 C4         61.6057   44.1922   35.9775 C.3         1 MOL       0.1259
     26 C3         60.9607   43.4073   34.8015 C.3         1 MOL       0.1245
     27 C2         61.0652   41.8859   35.0736 C.3         1 MOL       0.0256
     28 O6         63.0304   44.3351   38.5712 O.3         1 MOL      -0.3922
     29 O5         63.0173   42.2464   36.4197 O.3         1 MOL      -0.3215
     30 O4         61.5426   45.6008   35.6593 O.3         1 MOL      -0.3398
     31 O3         59.6027   43.7927   34.5841 O.3         1 MOL      -0.3838
     32 N1         62.4728   41.5416   35.3659 N.4         1 MOL       0.3939
     33 H1         59.4531   50.9755   41.3257 H           1 MOL       0.0671
     34 H2         58.5625   48.9987   43.4981 H           1 MOL       0.0648
     35 H3         57.0911   51.5100   42.5435 H           1 MOL       0.0647
     36 H4         56.2971   48.5849   42.0366 H           1 MOL       0.0647
     37 H5         54.3598   50.1418   42.1694 H           1 MOL       0.0584
     38 H6         54.5790   49.4909   40.5417 H           1 MOL       0.0584
     39 H7         58.5092   48.0697   41.0585 H           1 MOL       0.0938
     40 H8         61.1315   50.1206   42.4570 H           1 MOL       0.2101
     41 H9         58.8750   50.6475   44.8557 H           1 MOL       0.2100
     42 H10        56.6020   51.0760   44.5939 H           1 MOL       0.2100
     43 H11        55.5536   51.3874   39.9232 H           1 MOL       0.2095
     44 H12        59.8592   45.3025   37.9832 H           1 MOL       0.0671
     45 H13        58.4092   47.8727   37.2273 H           1 MOL       0.0648
     46 H14        60.1553   47.3005   39.6758 H           1 MOL       0.0651
     47 H15        60.8406   49.1293   37.3150 H           1 MOL       0.0647
     48 H16        62.0944   48.6297   40.0031 H           1 MOL       0.0584
     49 H17        62.0399   50.1040   39.0335 H           1 MOL       0.0584
     50 H18        60.4702   47.2939   35.7339 H           1 MOL       0.0938
     51 H19        57.7754   45.4512   36.7651 H           1 MOL       0.2101
     52 H20        56.9429   47.0068   38.3525 H           1 MOL       0.2100
     53 H21        63.6839   47.8323   38.7698 H           1 MOL       0.2095
     54 H22        64.0092   45.3890   37.1108 H           1 MOL       0.0586
     55 H23        64.7503   43.8555   37.5496 H           1 MOL       0.0586
     56 H24        63.6502   43.8698   35.2801 H           1 MOL       0.0702
     57 H25        61.0483   43.9437   36.8797 H           1 MOL       0.0654
     58 H26        61.5010   43.6384   33.8758 H           1 MOL       0.0674
     59 H27        60.7442   41.3251   34.1949 H           1 MOL       0.0850
     60 H28        60.4300   41.6046   35.9173 H           1 MOL       0.0850
     61 H29        63.4516   43.6738   39.1597 H           1 MOL       0.2095
     62 H30        59.3047   43.2387   33.8173 H           1 MOL       0.2101
     63 H31        63.0185   41.7261   34.5271 H           1 MOL       0.2348
     64 H32        62.5221   40.5389   35.5604 H           1 MOL       0.2348
@<TRIPOS>BOND
     1     1     2   1
     2     6     1   1
     3     1     7   1
     4     2     3   1
     5     2     8   1
     6     4     3   1
     7     3     9   1
     8     4     5   1
     9    10     4   1
    10     5    11   1
    11     6    10   1
    12    20     6   1
    13    12    13   1
    14    17    12   1
    15    12    18   1
    16    13    14   1
    17    13    19   1
    18    15    14   1
    19    14    20   1
    20    15    16   1
    21    21    15   1
    22    16    22   1
    23    17    21   1
    24    30    17   1
    25    24    23   1
    26    23    28   1
    27    25    24   1
    28    24    29   1
    29    25    26   1
    30    25    30   1
    31    26    27   1
    32    26    31   1
    33    27    32   1
    34    29    32   1
    35     1    33   1
    36     2    34   1
    37     3    35   1
    38     4    36   1
    39     5    37   1
    40     5    38   1
    41     6    39   1
    42     7    40   1
    43     8    41   1
    44     9    42   1
    45    11    43   1
    46    12    44   1
    47    13    45   1
    48    14    46   1
    49    15    47   1
    50    16    48   1
    51    16    49   1
    52    17    50   1
    53    18    51   1
    54    19    52   1
    55    22    53   1
    56    23    54   1
    57    23    55   1
    58    24    56   1
    59    25    57   1
    60    26    58   1
    61    27    59   1
    62    27    60   1
    63    28    61   1
    64    31    62   1
    65    32    63   1
    66    32    64   1
@<TRIPOS>SUBSTRUCTURE
     1  MOL      1

