@<TRIPOS>MOLECULE
1w3l_ligand_062
    64    66
SMALL
GAST_HUCK
****
This file was generated by PARSER (from files_GN.cpp)

@<TRIPOS>ATOM
      1 C2         60.8419   43.3890   35.7737 C.3         1 MOL       0.1341
      2 C3         61.0231   44.7590   35.0654 C.3         1 MOL       0.1141
      3 C4         60.6021   45.9289   35.9984 C.3         1 MOL       0.1119
      4 C5         61.3120   45.8189   37.3820 C.3         1 MOL       0.1130
      5 C6         60.8118   46.8734   38.3993 C.3         1 MOL       0.0730
      6 C1         61.5410   43.4063   37.1583 C.3         1 MOL       0.1884
      7 O2         61.3654   42.3332   34.9583 O.3         1 MOL      -0.3841
      8 O3         60.2432   44.8015   33.8702 O.3         1 MOL      -0.3864
      9 O4         60.8682   47.1800   35.3704 O.3         1 MOL      -0.3865
     10 O5         61.0623   44.5136   37.9478 O.3         1 MOL      -0.3405
     11 O6         61.6476   48.0287   38.4082 O.3         1 MOL      -0.3924
     12 C2         62.3594   40.9778   41.3302 C.3         1 MOL       0.1341
     13 C3         61.4248   41.5887   40.2443 C.3         1 MOL       0.1144
     14 C4         62.1741   41.7908   38.8971 C.3         1 MOL       0.1184
     15 C5         62.8754   40.4602   38.4732 C.3         1 MOL       0.1134
     16 C6         63.7705   40.6216   37.2177 C.3         1 MOL       0.0730
     17 C1         63.0681   39.7064   40.7886 C.3         1 MOL       0.1884
     18 O2         61.6079   40.6375   42.4982 O.3         1 MOL      -0.3841
     19 O3         60.9022   42.8370   40.6996 O.3         1 MOL      -0.3864
     20 O4         61.2359   42.1884   37.8651 O.3         1 MOL      -0.3401
     21 O5         63.7242   40.0006   39.5380 O.3         1 MOL      -0.3405
     22 O6         64.3955   39.3926   36.8705 O.3         1 MOL      -0.3924
     23 C6         67.0976   37.2490   40.4791 C.3         1 MOL       0.0782
     24 C5         65.7727   38.0473   40.3261 C.3         1 MOL       0.1538
     25 C4         64.8396   38.0540   41.5868 C.3         1 MOL       0.1259
     26 C3         64.0014   36.7445   41.7071 C.3         1 MOL       0.1245
     27 C2         63.4753   36.2441   40.3346 C.3         1 MOL       0.0256
     28 O6         68.0605   37.9770   41.2427 O.3         1 MOL      -0.3922
     29 O5         65.0361   37.6042   39.1631 O.3         1 MOL      -0.3215
     30 O4         64.0476   39.2607   41.7525 O.3         1 MOL      -0.3398
     31 O3         64.7717   35.6941   42.2937 O.3         1 MOL      -0.3838
     32 N1         64.5133   36.3418   39.2852 N.4         1 MOL       0.3939
     33 H1         59.7740   43.2007   35.9174 H           1 MOL       0.0671
     34 H2         62.0734   44.8739   34.7833 H           1 MOL       0.0648
     35 H3         59.5216   45.8696   36.1700 H           1 MOL       0.0647
     36 H4         62.3913   45.9536   37.2526 H           1 MOL       0.0647
     37 H5         60.8155   46.4503   39.4063 H           1 MOL       0.0584
     38 H6         59.7920   47.1811   38.1650 H           1 MOL       0.0584
     39 H7         62.6210   43.4968   36.9992 H           1 MOL       0.0938
     40 H8         62.2835   42.5954   34.7314 H           1 MOL       0.2101
     41 H9         60.0105   43.8758   33.6354 H           1 MOL       0.2100
     42 H10        60.0709   47.3405   34.8179 H           1 MOL       0.2100
     43 H11        62.4370   47.7572   38.9383 H           1 MOL       0.2095
     44 H12        63.1135   41.7173   41.6160 H           1 MOL       0.0671
     45 H13        60.5774   40.9135   40.0855 H           1 MOL       0.0648
     46 H14        62.9465   42.5531   39.0711 H           1 MOL       0.0651
     47 H15        62.1182   39.6998   38.2512 H           1 MOL       0.0647
     48 H16        64.5422   41.3659   37.4121 H           1 MOL       0.0584
     49 H17        63.1761   40.9488   36.3627 H           1 MOL       0.0584
     50 H18        62.3043   38.9427   40.6480 H           1 MOL       0.0938
     51 H19        61.3447   41.4905   42.8963 H           1 MOL       0.2101
     52 H20        61.6770   43.4077   40.8528 H           1 MOL       0.2100
     53 H21        63.8659   39.0500   36.1200 H           1 MOL       0.2095
     54 H22        67.5237   37.0598   39.4922 H           1 MOL       0.0586
     55 H23        66.9232   36.2896   40.9676 H           1 MOL       0.0586
     56 H24        66.0672   39.0788   40.1233 H           1 MOL       0.0702
     57 H25        65.4933   38.0908   42.4633 H           1 MOL       0.0654
     58 H26        63.1497   36.9206   42.3636 H           1 MOL       0.0674
     59 H27        62.6184   36.8270   40.0189 H           1 MOL       0.0850
     60 H28        63.1391   35.2126   40.4167 H           1 MOL       0.0850
     61 H29        68.2611   38.7694   40.7096 H           1 MOL       0.2095
     62 H30        64.9785   36.0001   43.2064 H           1 MOL       0.2101
     63 H31        64.1014   36.0661   38.3894 H           1 MOL       0.2348
     64 H32        65.2719   35.6973   39.5045 H           1 MOL       0.2348
@<TRIPOS>BOND
     1     1     2   1
     2     6     1   1
     3     1     7   1
     4     2     3   1
     5     2     8   1
     6     4     3   1
     7     3     9   1
     8     4     5   1
     9    10     4   1
    10     5    11   1
    11     6    10   1
    12    20     6   1
    13    12    13   1
    14    17    12   1
    15    12    18   1
    16    13    14   1
    17    13    19   1
    18    15    14   1
    19    14    20   1
    20    15    16   1
    21    21    15   1
    22    16    22   1
    23    17    21   1
    24    30    17   1
    25    24    23   1
    26    23    28   1
    27    25    24   1
    28    24    29   1
    29    25    26   1
    30    25    30   1
    31    26    27   1
    32    26    31   1
    33    27    32   1
    34    29    32   1
    35     1    33   1
    36     2    34   1
    37     3    35   1
    38     4    36   1
    39     5    37   1
    40     5    38   1
    41     6    39   1
    42     7    40   1
    43     8    41   1
    44     9    42   1
    45    11    43   1
    46    12    44   1
    47    13    45   1
    48    14    46   1
    49    15    47   1
    50    16    48   1
    51    16    49   1
    52    17    50   1
    53    18    51   1
    54    19    52   1
    55    22    53   1
    56    23    54   1
    57    23    55   1
    58    24    56   1
    59    25    57   1
    60    26    58   1
    61    27    59   1
    62    27    60   1
    63    28    61   1
    64    31    62   1
    65    32    63   1
    66    32    64   1
@<TRIPOS>SUBSTRUCTURE
     1  MOL      1

