@<TRIPOS>MOLECULE
1w3l_ligand_078
    64    66
SMALL
GAST_HUCK
****
This file was generated by PARSER (from files_GN.cpp)

@<TRIPOS>ATOM
      1 C2         60.2168   44.0093   37.4913 C.3         1 MOL       0.1341
      2 C3         60.5073   42.5134   37.7944 C.3         1 MOL       0.1141
      3 C4         61.9506   42.1087   37.3909 C.3         1 MOL       0.1119
      4 C5         62.9850   43.1279   37.9533 C.3         1 MOL       0.1130
      5 C6         64.4102   42.8449   37.4415 C.3         1 MOL       0.0730
      6 C1         61.3423   44.9038   38.0822 C.3         1 MOL       0.1884
      7 O2         58.9606   44.3653   38.0602 O.3         1 MOL      -0.3841
      8 O3         59.5815   41.6975   37.0768 O.3         1 MOL      -0.3864
      9 O4         62.2593   40.7935   37.8616 O.3         1 MOL      -0.3865
     10 O5         62.6150   44.4651   37.5667 O.3         1 MOL      -0.3405
     11 O6         65.3096   43.8838   37.8154 O.3         1 MOL      -0.3924
     12 C2         60.2573   48.6810   40.5858 C.3         1 MOL       0.1341
     13 C3         60.6472   47.3234   39.9382 C.3         1 MOL       0.1144
     14 C4         60.4656   47.2917   38.3828 C.3         1 MOL       0.1184
     15 C5         60.8962   48.6480   37.7270 C.3         1 MOL       0.1134
     16 C6         60.3109   48.8199   36.2956 C.3         1 MOL       0.0730
     17 C1         61.0047   49.8294   39.8551 C.3         1 MOL       0.1884
     18 O2         60.5575   48.6403   41.9818 O.3         1 MOL      -0.3841
     19 O3         59.8738   46.2958   40.5609 O.3         1 MOL      -0.3864
     20 O4         61.2664   46.2914   37.7058 O.3         1 MOL      -0.3401
     21 O5         60.5373   49.8261   38.4849 O.3         1 MOL      -0.3405
     22 O6         58.9988   48.2641   36.1981 O.3         1 MOL      -0.3924
     23 C6         60.8390   53.4998   43.3836 C.3         1 MOL       0.0782
     24 C5         60.7482   53.0133   41.9092 C.3         1 MOL       0.1538
     25 C4         61.2983   51.5756   41.6278 C.3         1 MOL       0.1259
     26 C3         62.8601   51.5756   41.5600 C.3         1 MOL       0.1245
     27 C2         63.3694   52.7403   40.6702 C.3         1 MOL       0.0256
     28 O6         59.6726   53.1729   44.1429 O.3         1 MOL      -0.3922
     29 O5         61.3564   53.9593   41.0016 O.3         1 MOL      -0.3215
     30 O4         60.7018   51.1457   40.3775 O.3         1 MOL      -0.3398
     31 O3         63.4183   51.6739   42.8742 O.3         1 MOL      -0.3838
     32 N1         62.7298   54.0048   41.0749 N.4         1 MOL       0.3939
     33 H1         60.1701   44.1476   36.4117 H           1 MOL       0.0671
     34 H2         60.3651   42.3269   38.8675 H           1 MOL       0.0648
     35 H3         62.0182   42.0970   36.2992 H           1 MOL       0.0647
     36 H4         63.0025   43.0629   39.0442 H           1 MOL       0.0647
     37 H5         64.4132   42.7575   36.3527 H           1 MOL       0.0584
     38 H6         64.7801   41.9102   37.8727 H           1 MOL       0.0584
     39 H7         61.3481   44.8072   39.1729 H           1 MOL       0.0938
     40 H8         58.6393   45.1339   37.5323 H           1 MOL       0.2101
     41 H9         60.0693   40.8819   36.8500 H           1 MOL       0.2100
     42 H10        62.0030   40.1766   37.1411 H           1 MOL       0.2100
     43 H11        65.0060   44.6691   37.3115 H           1 MOL       0.2095
     44 H12        59.1779   48.8441   40.4834 H           1 MOL       0.0671
     45 H13        61.6983   47.1281   40.1678 H           1 MOL       0.0648
     46 H14        59.4097   47.1067   38.1741 H           1 MOL       0.0651
     47 H15        61.9865   48.6664   37.6225 H           1 MOL       0.0647
     48 H16        60.9599   48.3325   35.5617 H           1 MOL       0.0584
     49 H17        60.2527   49.8846   36.0487 H           1 MOL       0.0584
     50 H18        62.0892   49.6496   39.8770 H           1 MOL       0.0938
     51 H19        61.5298   48.5997   42.0417 H           1 MOL       0.2101
     52 H20        58.9391   46.5015   40.3508 H           1 MOL       0.2100
     53 H21        58.8124   48.2154   35.2395 H           1 MOL       0.2095
     54 H22        60.9359   54.5908   43.3913 H           1 MOL       0.0586
     55 H23        61.7146   53.0803   43.8893 H           1 MOL       0.0586
     56 H24        59.6811   53.0134   41.6623 H           1 MOL       0.0702
     57 H25        60.9876   50.9135   42.4392 H           1 MOL       0.0654
     58 H26        63.2202   50.6341   41.1384 H           1 MOL       0.0674
     59 H27        63.1351   52.5365   39.6242 H           1 MOL       0.0850
     60 H28        64.4544   52.8350   40.7610 H           1 MOL       0.0850
     61 H29        59.7156   52.2040   44.2829 H           1 MOL       0.2095
     62 H30        64.3834   51.7716   42.7449 H           1 MOL       0.2101
     63 H31        63.0588   54.7428   40.4460 H           1 MOL       0.2348
     64 H32        63.0211   54.2433   42.0286 H           1 MOL       0.2348
@<TRIPOS>BOND
     1     1     2   1
     2     6     1   1
     3     1     7   1
     4     2     3   1
     5     2     8   1
     6     4     3   1
     7     3     9   1
     8     4     5   1
     9    10     4   1
    10     5    11   1
    11     6    10   1
    12    20     6   1
    13    12    13   1
    14    17    12   1
    15    12    18   1
    16    13    14   1
    17    13    19   1
    18    15    14   1
    19    14    20   1
    20    15    16   1
    21    21    15   1
    22    16    22   1
    23    17    21   1
    24    30    17   1
    25    24    23   1
    26    23    28   1
    27    25    24   1
    28    24    29   1
    29    25    26   1
    30    25    30   1
    31    26    27   1
    32    26    31   1
    33    27    32   1
    34    29    32   1
    35     1    33   1
    36     2    34   1
    37     3    35   1
    38     4    36   1
    39     5    37   1
    40     5    38   1
    41     6    39   1
    42     7    40   1
    43     8    41   1
    44     9    42   1
    45    11    43   1
    46    12    44   1
    47    13    45   1
    48    14    46   1
    49    15    47   1
    50    16    48   1
    51    16    49   1
    52    17    50   1
    53    18    51   1
    54    19    52   1
    55    22    53   1
    56    23    54   1
    57    23    55   1
    58    24    56   1
    59    25    57   1
    60    26    58   1
    61    27    59   1
    62    27    60   1
    63    28    61   1
    64    31    62   1
    65    32    63   1
    66    32    64   1
@<TRIPOS>SUBSTRUCTURE
     1  MOL      1

