@<TRIPOS>MOLECULE
1w3l_ligand_086
    64    66
SMALL
GAST_HUCK
****
This file was generated by PARSER (from files_GN.cpp)

@<TRIPOS>ATOM
      1 C2         55.4013   51.6172   37.9003 C.3         1 MOL       0.1341
      2 C3         55.0325   52.7343   38.9139 C.3         1 MOL       0.1141
      3 C4         54.2095   52.1542   40.0906 C.3         1 MOL       0.1119
      4 C5         54.9082   50.8964   40.7054 C.3         1 MOL       0.1130
      5 C6         54.0080   50.1384   41.7205 C.3         1 MOL       0.0730
      6 C1         56.1006   50.4191   38.6173 C.3         1 MOL       0.1884
      7 O2         56.2413   52.1595   36.8681 O.3         1 MOL      -0.3841
      8 O3         54.2873   53.7486   38.2433 O.3         1 MOL      -0.3864
      9 O4         54.0137   53.1688   41.0767 O.3         1 MOL      -0.3865
     10 O5         55.2537   49.9412   39.6729 O.3         1 MOL      -0.3405
     11 O6         53.7204   50.9139   42.8848 O.3         1 MOL      -0.3924
     12 C2         60.0150   49.0057   36.7339 C.3         1 MOL       0.1341
     13 C3         58.7025   49.7173   37.1587 C.3         1 MOL       0.1144
     14 C4         57.5189   48.7178   37.3504 C.3         1 MOL       0.1184
     15 C5         57.9536   47.5620   38.3155 C.3         1 MOL       0.1134
     16 C6         56.9295   46.4027   38.4767 C.3         1 MOL       0.0730
     17 C1         60.3119   47.7587   37.6094 C.3         1 MOL       0.1884
     18 O2         61.0657   49.9647   36.8251 O.3         1 MOL      -0.3841
     19 O3         58.3463   50.7038   36.1942 O.3         1 MOL      -0.3864
     20 O4         56.2500   49.3518   37.6538 O.3         1 MOL      -0.3401
     21 O5         59.1426   46.9287   37.7724 O.3         1 MOL      -0.3405
     22 O6         55.7239   46.8077   39.1163 O.3         1 MOL      -0.3924
     23 C6         63.5401   43.9799   38.0308 C.3         1 MOL       0.0782
     24 C5         63.0310   45.2166   37.2315 C.3         1 MOL       0.1538
     25 C4         61.5251   45.5837   37.4004 C.3         1 MOL       0.1259
     26 C3         60.6377   44.6169   36.5530 C.3         1 MOL       0.1245
     27 C2         61.1702   44.4867   35.1036 C.3         1 MOL       0.0256
     28 O6         62.7904   43.7321   39.2273 O.3         1 MOL      -0.3922
     29 O5         63.3648   45.1066   35.8344 O.3         1 MOL      -0.3215
     30 O4         61.3406   46.9588   36.9728 O.3         1 MOL      -0.3398
     31 O3         60.6177   43.3310   37.1894 O.3         1 MOL      -0.3838
     32 N1         62.6140   44.1793   35.1353 N.4         1 MOL       0.3939
     33 H1         54.4794   51.2559   37.4295 H           1 MOL       0.0671
     34 H2         55.9524   53.1802   39.2997 H           1 MOL       0.0648
     35 H3         53.2192   51.8613   39.7156 H           1 MOL       0.0647
     36 H4         55.8209   51.2100   41.2245 H           1 MOL       0.0647
     37 H5         54.5267   49.2354   42.0470 H           1 MOL       0.0584
     38 H6         53.0708   49.8434   41.2452 H           1 MOL       0.0584
     39 H7         57.0559   50.7544   39.0271 H           1 MOL       0.0938
     40 H8         56.2906   51.4571   36.1824 H           1 MOL       0.2101
     41 H9         54.2277   54.4907   38.8736 H           1 MOL       0.2100
     42 H10        54.9081   53.3751   41.4214 H           1 MOL       0.2100
     43 H11        53.1457   51.6440   42.5709 H           1 MOL       0.2095
     44 H12        59.9245   48.6827   35.6918 H           1 MOL       0.0671
     45 H13        58.8859   50.2353   38.1015 H           1 MOL       0.0648
     46 H14        57.3452   48.2396   36.3836 H           1 MOL       0.0651
     47 H15        58.1631   47.9735   39.3125 H           1 MOL       0.0647
     48 H16        57.3880   45.6124   39.0836 H           1 MOL       0.0584
     49 H17        56.6938   45.9835   37.4896 H           1 MOL       0.0584
     50 H18        60.6661   48.0827   38.5911 H           1 MOL       0.0938
     51 H19        61.8953   49.4754   36.6615 H           1 MOL       0.2101
     52 H20        58.3271   50.2346   35.3298 H           1 MOL       0.2100
     53 H21        55.1827   45.9931   39.1440 H           1 MOL       0.2095
     54 H22        64.5856   44.1486   38.3272 H           1 MOL       0.0586
     55 H23        63.5365   43.0569   37.4216 H           1 MOL       0.0586
     56 H24        63.6033   46.0537   37.6251 H           1 MOL       0.0702
     57 H25        61.2517   45.4941   38.4561 H           1 MOL       0.0654
     58 H26        59.6058   44.9861   36.5323 H           1 MOL       0.0674
     59 H27        61.0093   45.4140   34.5560 H           1 MOL       0.0850
     60 H28        60.6492   43.6808   34.5863 H           1 MOL       0.0850
     61 H29        62.0786   43.1082   38.9493 H           1 MOL       0.2095
     62 H30        60.0038   42.7854   36.6528 H           1 MOL       0.2101
     63 H31        62.9680   44.1202   34.1754 H           1 MOL       0.2348
     64 H32        62.7346   43.2579   35.5631 H           1 MOL       0.2348
@<TRIPOS>BOND
     1     1     2   1
     2     6     1   1
     3     1     7   1
     4     2     3   1
     5     2     8   1
     6     4     3   1
     7     3     9   1
     8     4     5   1
     9    10     4   1
    10     5    11   1
    11     6    10   1
    12    20     6   1
    13    12    13   1
    14    17    12   1
    15    12    18   1
    16    13    14   1
    17    13    19   1
    18    15    14   1
    19    14    20   1
    20    15    16   1
    21    21    15   1
    22    16    22   1
    23    17    21   1
    24    30    17   1
    25    24    23   1
    26    23    28   1
    27    25    24   1
    28    24    29   1
    29    25    26   1
    30    25    30   1
    31    26    27   1
    32    26    31   1
    33    27    32   1
    34    29    32   1
    35     1    33   1
    36     2    34   1
    37     3    35   1
    38     4    36   1
    39     5    37   1
    40     5    38   1
    41     6    39   1
    42     7    40   1
    43     8    41   1
    44     9    42   1
    45    11    43   1
    46    12    44   1
    47    13    45   1
    48    14    46   1
    49    15    47   1
    50    16    48   1
    51    16    49   1
    52    17    50   1
    53    18    51   1
    54    19    52   1
    55    22    53   1
    56    23    54   1
    57    23    55   1
    58    24    56   1
    59    25    57   1
    60    26    58   1
    61    27    59   1
    62    27    60   1
    63    28    61   1
    64    31    62   1
    65    32    63   1
    66    32    64   1
@<TRIPOS>SUBSTRUCTURE
     1  MOL      1

