@<TRIPOS>MOLECULE
1w3l_ligand_080
    64    66
SMALL
GAST_HUCK
****
This file was generated by PARSER (from files_GN.cpp)

@<TRIPOS>ATOM
      1 C2         64.3463   40.0381   36.3074 C.3         1 MOL       0.1341
      2 C3         65.1223   38.6902   36.4085 C.3         1 MOL       0.1141
      3 C4         65.3934   38.2984   37.8900 C.3         1 MOL       0.1119
      4 C5         64.0714   38.3384   38.7103 C.3         1 MOL       0.1130
      5 C6         64.3290   38.1526   40.2266 C.3         1 MOL       0.0730
      6 C1         63.0693   40.0050   37.1956 C.3         1 MOL       0.1884
      7 O2         64.0110   40.2986   34.9436 O.3         1 MOL      -0.3841
      8 O3         66.3825   38.7619   35.7226 O.3         1 MOL      -0.3864
      9 O4         65.9819   36.9945   37.9618 O.3         1 MOL      -0.3865
     10 O5         63.4075   39.6049   38.5357 O.3         1 MOL      -0.3405
     11 O6         63.1327   37.8034   40.9161 O.3         1 MOL      -0.3924
     12 C2         60.6276   43.6671   34.9760 C.3         1 MOL       0.1341
     13 C3         60.9114   42.3074   35.7026 C.3         1 MOL       0.1144
     14 C4         62.2474   42.3314   36.5040 C.3         1 MOL       0.1184
     15 C5         62.3058   43.6260   37.3724 C.3         1 MOL       0.1134
     16 C6         63.6351   43.8144   38.1505 C.3         1 MOL       0.0730
     17 C1         60.8258   44.8721   35.9431 C.3         1 MOL       0.1884
     18 O2         59.2946   43.7073   34.4613 O.3         1 MOL      -0.3841
     19 O3         60.9083   41.2575   34.7347 O.3         1 MOL      -0.3864
     20 O4         62.3885   41.2438   37.4397 O.3         1 MOL      -0.3401
     21 O5         62.1440   44.7679   36.5112 O.3         1 MOL      -0.3405
     22 O6         64.6460   42.8715   37.7760 O.3         1 MOL      -0.3924
     23 C6         62.0742   48.7594   37.8876 C.3         1 MOL       0.0782
     24 C5         61.3287   47.4711   37.4302 C.3         1 MOL       0.1538
     25 C4         60.7799   47.4276   35.9517 C.3         1 MOL       0.1259
     26 C3         59.3566   48.0744   35.8565 C.3         1 MOL       0.1245
     27 C2         58.4395   47.6239   37.0211 C.3         1 MOL       0.0256
     28 O6         61.6836   49.9628   37.2354 O.3         1 MOL      -0.3922
     29 O5         60.3085   47.0644   38.3688 O.3         1 MOL      -0.3215
     30 O4         60.7727   46.1439   35.2542 O.3         1 MOL      -0.3398
     31 O3         59.4329   49.5001   35.8584 O.3         1 MOL      -0.3838
     32 N1         59.1559   47.8053   38.3021 N.4         1 MOL       0.3939
     33 H1         64.9973   40.8336   36.6584 H           1 MOL       0.0671
     34 H2         64.5287   37.8894   35.9373 H           1 MOL       0.0648
     35 H3         66.1043   39.0153   38.3208 H           1 MOL       0.0647
     36 H4         63.4114   37.5394   38.3727 H           1 MOL       0.0647
     37 H5         64.7035   39.0853   40.6559 H           1 MOL       0.0584
     38 H6         65.0702   37.3688   40.4008 H           1 MOL       0.0584
     39 H7         62.3471   39.3017   36.7868 H           1 MOL       0.0938
     40 H8         64.8167   40.1305   34.4160 H           1 MOL       0.2101
     41 H9         66.1539   38.8629   34.7727 H           1 MOL       0.2100
     42 H10        66.8083   37.0530   37.4303 H           1 MOL       0.2100
     43 H11        62.8892   36.9190   40.5717 H           1 MOL       0.2095
     44 H12        61.3286   43.7882   34.1389 H           1 MOL       0.0671
     45 H13        60.0899   42.1147   36.3952 H           1 MOL       0.0648
     46 H14        63.0717   42.3821   35.7923 H           1 MOL       0.0651
     47 H15        61.5042   43.6067   38.1306 H           1 MOL       0.0647
     48 H16        63.4422   43.7220   39.2279 H           1 MOL       0.0584
     49 H17        64.0209   44.8240   37.9577 H           1 MOL       0.0584
     50 H18        60.0385   44.8455   36.7101 H           1 MOL       0.0938
     51 H19        59.2936   43.0853   33.7037 H           1 MOL       0.2101
     52 H20        61.7125   41.3976   34.1921 H           1 MOL       0.2100
     53 H21        65.4716   43.2320   38.1675 H           1 MOL       0.2095
     54 H22        63.1496   48.6317   37.7222 H           1 MOL       0.0586
     55 H23        61.9218   48.8952   38.9632 H           1 MOL       0.0586
     56 H24        62.0986   46.7157   37.5281 H           1 MOL       0.0702
     57 H25        61.4485   48.0377   35.3391 H           1 MOL       0.0654
     58 H26        58.8906   47.7972   34.9091 H           1 MOL       0.0674
     59 H27        58.1532   46.5754   36.9020 H           1 MOL       0.0850
     60 H28        57.5273   48.2258   37.0384 H           1 MOL       0.0850
     61 H29        62.2069   49.9836   36.4038 H           1 MOL       0.2095
     62 H30        58.5223   49.8151   35.6894 H           1 MOL       0.2101
     63 H31        58.5371   47.5087   39.0627 H           1 MOL       0.2348
     64 H32        59.3785   48.7989   38.4275 H           1 MOL       0.2348
@<TRIPOS>BOND
     1     1     2   1
     2     6     1   1
     3     1     7   1
     4     2     3   1
     5     2     8   1
     6     4     3   1
     7     3     9   1
     8     4     5   1
     9    10     4   1
    10     5    11   1
    11     6    10   1
    12    20     6   1
    13    12    13   1
    14    17    12   1
    15    12    18   1
    16    13    14   1
    17    13    19   1
    18    15    14   1
    19    14    20   1
    20    15    16   1
    21    21    15   1
    22    16    22   1
    23    17    21   1
    24    30    17   1
    25    24    23   1
    26    23    28   1
    27    25    24   1
    28    24    29   1
    29    25    26   1
    30    25    30   1
    31    26    27   1
    32    26    31   1
    33    27    32   1
    34    29    32   1
    35     1    33   1
    36     2    34   1
    37     3    35   1
    38     4    36   1
    39     5    37   1
    40     5    38   1
    41     6    39   1
    42     7    40   1
    43     8    41   1
    44     9    42   1
    45    11    43   1
    46    12    44   1
    47    13    45   1
    48    14    46   1
    49    15    47   1
    50    16    48   1
    51    16    49   1
    52    17    50   1
    53    18    51   1
    54    19    52   1
    55    22    53   1
    56    23    54   1
    57    23    55   1
    58    24    56   1
    59    25    57   1
    60    26    58   1
    61    27    59   1
    62    27    60   1
    63    28    61   1
    64    31    62   1
    65    32    63   1
    66    32    64   1
@<TRIPOS>SUBSTRUCTURE
     1  MOL      1

