@<TRIPOS>MOLECULE
1w3l_ligand_055
    64    66
SMALL
GAST_HUCK
****
This file was generated by PARSER (from files_GN.cpp)

@<TRIPOS>ATOM
      1 C2         59.0778   50.0781   41.7586 C.3         1 MOL       0.1341
      2 C3         59.2319   51.2850   42.7165 C.3         1 MOL       0.1141
      3 C4         60.7315   51.5108   43.0536 C.3         1 MOL       0.1119
      4 C5         61.5896   51.6110   41.7496 C.3         1 MOL       0.1130
      5 C6         63.1122   51.6025   42.0367 C.3         1 MOL       0.0730
      6 C1         59.9519   50.2784   40.4938 C.3         1 MOL       0.1884
      7 O2         57.7134   49.8888   41.3803 O.3         1 MOL      -0.3841
      8 O3         58.4894   51.0419   43.9099 O.3         1 MOL      -0.3864
      9 O4         60.8694   52.6795   43.8615 O.3         1 MOL      -0.3865
     10 O5         61.3342   50.4993   40.8572 O.3         1 MOL      -0.3405
     11 O6         63.4861   52.6255   42.9576 O.3         1 MOL      -0.3924
     12 C2         60.6330   45.4977   40.0722 C.3         1 MOL       0.1341
     13 C3         59.8355   46.8181   40.2016 C.3         1 MOL       0.1144
     14 C4         60.6291   48.0164   39.5851 C.3         1 MOL       0.1184
     15 C5         61.0607   47.6470   38.1231 C.3         1 MOL       0.1134
     16 C6         61.9802   48.7062   37.4829 C.3         1 MOL       0.0730
     17 C1         61.0131   45.2604   38.5930 C.3         1 MOL       0.1884
     18 O2         59.8669   44.4031   40.5783 O.3         1 MOL      -0.3841
     19 O3         59.5210   47.0118   41.5788 O.3         1 MOL      -0.3864
     20 O4         59.8060   49.2121   39.5281 O.3         1 MOL      -0.3401
     21 O5         61.7645   46.3803   38.0841 O.3         1 MOL      -0.3405
     22 O6         62.5048   48.2276   36.2449 O.3         1 MOL      -0.3924
     23 C6         60.3278   42.1473   35.5987 C.3         1 MOL       0.0782
     24 C5         60.5645   42.5669   37.0742 C.3         1 MOL       0.1538
     25 C4         61.9110   43.3291   37.3281 C.3         1 MOL       0.1259
     26 C3         63.1021   42.3388   37.4989 C.3         1 MOL       0.1245
     27 C2         62.7239   41.1920   38.4664 C.3         1 MOL       0.0256
     28 O6         59.7524   43.2376   34.8687 O.3         1 MOL      -0.3922
     29 O5         60.4110   41.4708   38.0083 O.3         1 MOL      -0.3215
     30 O4         61.8339   44.0831   38.5544 O.3         1 MOL      -0.3398
     31 O3         63.5086   41.7679   36.2598 O.3         1 MOL      -0.3838
     32 N1         61.4515   40.5848   38.0357 N.4         1 MOL       0.3939
     33 H1         59.4233   49.1940   42.2912 H           1 MOL       0.0671
     34 H2         58.8241   52.1815   42.2402 H           1 MOL       0.0648
     35 H3         61.0854   50.6609   43.6454 H           1 MOL       0.0647
     36 H4         61.3437   52.5446   41.2289 H           1 MOL       0.0647
     37 H5         63.6633   51.7651   41.1042 H           1 MOL       0.0584
     38 H6         63.4149   50.6333   42.4467 H           1 MOL       0.0584
     39 H7         59.5880   51.1671   39.9718 H           1 MOL       0.0938
     40 H8         57.2426   49.6663   42.2099 H           1 MOL       0.2101
     41 H9         58.5700   51.8621   44.4418 H           1 MOL       0.2100
     42 H10        60.5357   53.4207   43.3129 H           1 MOL       0.2100
     43 H11        64.4409   52.4758   43.1181 H           1 MOL       0.2095
     44 H12        61.5508   45.5814   40.6715 H           1 MOL       0.0671
     45 H13        58.8793   46.7165   39.6688 H           1 MOL       0.0648
     46 H14        61.5386   48.1707   40.1852 H           1 MOL       0.0651
     47 H15        60.1620   47.5738   37.4956 H           1 MOL       0.0647
     48 H16        62.8110   48.9425   38.1551 H           1 MOL       0.0584
     49 H17        61.4186   49.6219   37.2844 H           1 MOL       0.0584
     50 H18        60.0935   45.1205   38.0100 H           1 MOL       0.0938
     51 H19        60.4708   43.6325   40.5459 H           1 MOL       0.2101
     52 H20        60.3909   47.0852   42.0304 H           1 MOL       0.2100
     53 H21        62.9158   49.0072   35.8226 H           1 MOL       0.2095
     54 H22        59.6281   41.3059   35.5595 H           1 MOL       0.0586
     55 H23        61.2599   41.8409   35.1120 H           1 MOL       0.0586
     56 H24        59.7417   43.2441   37.3192 H           1 MOL       0.0702
     57 H25        62.1455   44.0016   36.4964 H           1 MOL       0.0654
     58 H26        63.9641   42.8658   37.9111 H           1 MOL       0.0674
     59 H27        62.6083   41.5651   39.4882 H           1 MOL       0.0850
     60 H28        63.5005   40.4217   38.4744 H           1 MOL       0.0850
     61 H29        59.5065   42.8707   33.9915 H           1 MOL       0.2095
     62 H30        63.8124   42.5238   35.7159 H           1 MOL       0.2101
     63 H31        61.2043   39.8362   38.6863 H           1 MOL       0.2348
     64 H32        61.5450   40.1769   37.1097 H           1 MOL       0.2348
@<TRIPOS>BOND
     1     1     2   1
     2     6     1   1
     3     1     7   1
     4     2     3   1
     5     2     8   1
     6     4     3   1
     7     3     9   1
     8     4     5   1
     9    10     4   1
    10     5    11   1
    11     6    10   1
    12    20     6   1
    13    12    13   1
    14    17    12   1
    15    12    18   1
    16    13    14   1
    17    13    19   1
    18    15    14   1
    19    14    20   1
    20    15    16   1
    21    21    15   1
    22    16    22   1
    23    17    21   1
    24    30    17   1
    25    24    23   1
    26    23    28   1
    27    25    24   1
    28    24    29   1
    29    25    26   1
    30    25    30   1
    31    26    27   1
    32    26    31   1
    33    27    32   1
    34    29    32   1
    35     1    33   1
    36     2    34   1
    37     3    35   1
    38     4    36   1
    39     5    37   1
    40     5    38   1
    41     6    39   1
    42     7    40   1
    43     8    41   1
    44     9    42   1
    45    11    43   1
    46    12    44   1
    47    13    45   1
    48    14    46   1
    49    15    47   1
    50    16    48   1
    51    16    49   1
    52    17    50   1
    53    18    51   1
    54    19    52   1
    55    22    53   1
    56    23    54   1
    57    23    55   1
    58    24    56   1
    59    25    57   1
    60    26    58   1
    61    27    59   1
    62    27    60   1
    63    28    61   1
    64    31    62   1
    65    32    63   1
    66    32    64   1
@<TRIPOS>SUBSTRUCTURE
     1  MOL      1

