@<TRIPOS>MOLECULE
1w3l_ligand_073
    64    66
SMALL
GAST_HUCK
****
This file was generated by PARSER (from files_GN.cpp)

@<TRIPOS>ATOM
      1 C2         62.7903   43.3903   37.0935 C.3         1 MOL       0.1341
      2 C3         62.8133   42.1294   36.1811 C.3         1 MOL       0.1141
      3 C4         61.5597   42.0537   35.2720 C.3         1 MOL       0.1119
      4 C5         61.4042   43.3995   34.5118 C.3         1 MOL       0.1130
      5 C6         60.1402   43.4620   33.6340 C.3         1 MOL       0.0730
      6 C1         62.4362   44.6937   36.3012 C.3         1 MOL       0.1884
      7 O2         64.0562   43.5717   37.7295 O.3         1 MOL      -0.3841
      8 O3         62.8937   40.9387   36.9625 O.3         1 MOL      -0.3864
      9 O4         61.6568   40.9783   34.3487 O.3         1 MOL      -0.3865
     10 O5         61.2816   44.4745   35.4657 O.3         1 MOL      -0.3405
     11 O6         58.9541   43.5517   34.4090 O.3         1 MOL      -0.3924
     12 C2         59.1717   48.1234   36.4286 C.3         1 MOL       0.1341
     13 C3         60.1006   46.8720   36.2635 C.3         1 MOL       0.1144
     14 C4         61.5509   47.0109   36.8230 C.3         1 MOL       0.1184
     15 C5         61.5898   47.9128   38.1003 C.3         1 MOL       0.1134
     16 C6         63.0299   48.4100   38.3485 C.3         1 MOL       0.0730
     17 C1         59.3231   48.7669   37.8398 C.3         1 MOL       0.1884
     18 O2         57.8205   47.7239   36.1623 O.3         1 MOL      -0.3841
     19 O3         60.1430   46.5551   34.8628 O.3         1 MOL      -0.3864
     20 O4         62.1091   45.7366   37.2437 O.3         1 MOL      -0.3401
     21 O5         60.7210   49.0613   38.0130 O.3         1 MOL      -0.3405
     22 O6         63.1402   49.0919   39.5991 O.3         1 MOL      -0.3924
     23 C6         57.1708   51.9157   36.1673 C.3         1 MOL       0.0782
     24 C5         56.7734   51.5680   37.6229 C.3         1 MOL       0.1538
     25 C4         57.1923   50.1228   38.0467 C.3         1 MOL       0.1259
     26 C3         56.6085   49.8251   39.4571 C.3         1 MOL       0.1245
     27 C2         55.0963   50.1961   39.5262 C.3         1 MOL       0.0256
     28 O6         58.2414   52.8646   36.1333 O.3         1 MOL      -0.3922
     29 O5         55.3432   51.7101   37.7298 O.3         1 MOL      -0.3215
     30 O4         58.6366   50.0329   37.9810 O.3         1 MOL      -0.3398
     31 O3         56.7398   48.4399   39.7974 O.3         1 MOL      -0.3838
     32 N1         54.8884   51.5642   39.0138 N.4         1 MOL       0.3939
     33 H1         62.0334   43.2514   37.8683 H           1 MOL       0.0671
     34 H2         63.7109   42.1708   35.5521 H           1 MOL       0.0648
     35 H3         60.6761   41.8894   35.8903 H           1 MOL       0.0647
     36 H4         62.2723   43.5647   33.8521 H           1 MOL       0.0647
     37 H5         60.0929   42.5804   32.9961 H           1 MOL       0.0584
     38 H6         60.1850   44.3489   32.9978 H           1 MOL       0.0584
     39 H7         63.2922   45.0053   35.6888 H           1 MOL       0.0938
     40 H8         63.9986   43.0725   38.5693 H           1 MOL       0.2101
     41 H9         62.4967   40.2324   36.4041 H           1 MOL       0.2100
     42 H10        62.3605   41.2481   33.7242 H           1 MOL       0.2100
     43 H11        58.6298   42.6324   34.5130 H           1 MOL       0.2095
     44 H12        59.4445   48.8778   35.6779 H           1 MOL       0.0671
     45 H13        59.6187   46.0278   36.7749 H           1 MOL       0.0648
     46 H14        62.1714   47.4596   36.0451 H           1 MOL       0.0651
     47 H15        61.2913   47.3205   38.9686 H           1 MOL       0.0647
     48 H16        63.3389   49.0931   37.5496 H           1 MOL       0.0584
     49 H17        63.7279   47.5704   38.3569 H           1 MOL       0.0584
     50 H18        58.9893   48.0653   38.6047 H           1 MOL       0.0938
     51 H19        57.6025   47.0877   36.8747 H           1 MOL       0.2101
     52 H20        60.2237   47.4222   34.4005 H           1 MOL       0.2100
     53 H21        64.1087   49.2179   39.7350 H           1 MOL       0.2095
     54 H22        56.3192   52.3556   35.6270 H           1 MOL       0.0586
     55 H23        57.4840   51.0206   35.6154 H           1 MOL       0.0586
     56 H24        57.2473   52.3006   38.2840 H           1 MOL       0.0702
     57 H25        56.7255   49.4339   37.3451 H           1 MOL       0.0654
     58 H26        57.1519   50.4139   40.2080 H           1 MOL       0.0674
     59 H27        54.7413   50.1391   40.5611 H           1 MOL       0.0850
     60 H28        54.5111   49.4935   38.9223 H           1 MOL       0.0850
     61 H29        58.2953   53.1570   35.1927 H           1 MOL       0.2095
     62 H30        56.5463   48.3923   40.7611 H           1 MOL       0.2101
     63 H31        55.3693   52.2282   39.6253 H           1 MOL       0.2348
     64 H32        53.8867   51.7610   39.0364 H           1 MOL       0.2348
@<TRIPOS>BOND
     1     1     2   1
     2     6     1   1
     3     1     7   1
     4     2     3   1
     5     2     8   1
     6     4     3   1
     7     3     9   1
     8     4     5   1
     9    10     4   1
    10     5    11   1
    11     6    10   1
    12    20     6   1
    13    12    13   1
    14    17    12   1
    15    12    18   1
    16    13    14   1
    17    13    19   1
    18    15    14   1
    19    14    20   1
    20    15    16   1
    21    21    15   1
    22    16    22   1
    23    17    21   1
    24    30    17   1
    25    24    23   1
    26    23    28   1
    27    25    24   1
    28    24    29   1
    29    25    26   1
    30    25    30   1
    31    26    27   1
    32    26    31   1
    33    27    32   1
    34    29    32   1
    35     1    33   1
    36     2    34   1
    37     3    35   1
    38     4    36   1
    39     5    37   1
    40     5    38   1
    41     6    39   1
    42     7    40   1
    43     8    41   1
    44     9    42   1
    45    11    43   1
    46    12    44   1
    47    13    45   1
    48    14    46   1
    49    15    47   1
    50    16    48   1
    51    16    49   1
    52    17    50   1
    53    18    51   1
    54    19    52   1
    55    22    53   1
    56    23    54   1
    57    23    55   1
    58    24    56   1
    59    25    57   1
    60    26    58   1
    61    27    59   1
    62    27    60   1
    63    28    61   1
    64    31    62   1
    65    32    63   1
    66    32    64   1
@<TRIPOS>SUBSTRUCTURE
     1  MOL      1

