@<TRIPOS>MOLECULE
1w3l_ligand_029
    64    66
SMALL
GAST_HUCK
****
This file was generated by PARSER (from files_GN.cpp)

@<TRIPOS>ATOM
      1 C2         57.3445   49.8292   41.2217 C.3         1 MOL       0.1341
      2 C3         55.9090   49.5310   41.7433 C.3         1 MOL       0.1141
      3 C4         54.8350   50.0083   40.7314 C.3         1 MOL       0.1119
      4 C5         55.1503   49.4707   39.2926 C.3         1 MOL       0.1130
      5 C6         54.2199   50.0849   38.2231 C.3         1 MOL       0.0730
      6 C1         57.5269   49.2440   39.7958 C.3         1 MOL       0.1884
      7 O2         58.3084   49.2811   42.1191 O.3         1 MOL      -0.3841
      8 O3         55.7302   50.1886   43.0010 O.3         1 MOL      -0.3864
      9 O4         53.5411   49.5542   41.1438 O.3         1 MOL      -0.3865
     10 O5         56.5128   49.7837   38.9282 O.3         1 MOL      -0.3405
     11 O6         53.3927   49.0947   37.5958 O.3         1 MOL      -0.3924
     12 C2         60.9909   46.5418   38.4625 C.3         1 MOL       0.1341
     13 C3         60.1443   47.5146   39.3288 C.3         1 MOL       0.1144
     14 C4         59.6538   48.7507   38.5137 C.3         1 MOL       0.1184
     15 C5         59.0300   48.3165   37.1502 C.3         1 MOL       0.1134
     16 C6         58.7788   49.5053   36.1913 C.3         1 MOL       0.0730
     17 C1         60.2673   46.2048   37.1281 C.3         1 MOL       0.1884
     18 O2         61.2507   45.3300   39.2174 O.3         1 MOL      -0.3841
     19 O3         60.8948   47.9392   40.4657 O.3         1 MOL      -0.3864
     20 O4         58.8242   49.6436   39.2983 O.3         1 MOL      -0.3401
     21 O5         59.9217   47.4333   36.4513 O.3         1 MOL      -0.3405
     22 O6         57.5966   50.2327   36.5091 O.3         1 MOL      -0.3924
     23 C6         63.3172   44.1205   37.8105 C.3         1 MOL       0.0782
     24 C5         62.7123   43.6353   36.4677 C.3         1 MOL       0.1538
     25 C4         61.2313   44.0778   36.2684 C.3         1 MOL       0.1259
     26 C3         60.7197   43.4603   34.9389 C.3         1 MOL       0.1245
     27 C2         60.9522   41.9317   34.9469 C.3         1 MOL       0.0256
     28 O6         62.5457   43.6292   38.9095 O.3         1 MOL      -0.3922
     29 O5         62.7797   42.1926   36.4544 O.3         1 MOL      -0.3215
     30 O4         61.1561   45.5203   36.2188 O.3         1 MOL      -0.3398
     31 O3         59.3415   43.7555   34.7270 O.3         1 MOL      -0.3838
     32 N1         62.3637   41.6441   35.2708 N.4         1 MOL       0.3939
     33 H1         57.4899   50.9114   41.1855 H           1 MOL       0.0671
     34 H2         55.8035   48.4566   41.9048 H           1 MOL       0.0648
     35 H3         54.8261   51.0994   40.7106 H           1 MOL       0.0647
     36 H4         55.0199   48.3825   39.2705 H           1 MOL       0.0647
     37 H5         54.8244   50.5600   37.4411 H           1 MOL       0.0584
     38 H6         53.5787   50.8556   38.6572 H           1 MOL       0.0584
     39 H7         57.4198   48.1606   39.8334 H           1 MOL       0.0938
     40 H8         59.1681   49.6455   41.8251 H           1 MOL       0.2101
     41 H9         54.9574   49.7512   43.4192 H           1 MOL       0.2100
     42 H10        53.2799   50.1471   41.8792 H           1 MOL       0.2100
     43 H11        54.0230   48.5156   37.1086 H           1 MOL       0.2095
     44 H12        61.9493   47.0011   38.2302 H           1 MOL       0.0671
     45 H13        59.2910   46.9459   39.7209 H           1 MOL       0.0648
     46 H14        60.5541   49.3274   38.2844 H           1 MOL       0.0651
     47 H15        58.0729   47.8097   37.3147 H           1 MOL       0.0647
     48 H16        58.6624   49.1272   35.1757 H           1 MOL       0.0584
     49 H17        59.6235   50.1985   36.2015 H           1 MOL       0.0584
     50 H18        59.3493   45.6266   37.3151 H           1 MOL       0.0938
     51 H19        61.9721   45.5939   39.8291 H           1 MOL       0.2101
     52 H20        61.8217   47.6689   40.2906 H           1 MOL       0.2100
     53 H21        57.5193   50.9275   35.8094 H           1 MOL       0.2095
     54 H22        63.3463   45.2199   37.8496 H           1 MOL       0.0586
     55 H23        64.3438   43.7454   37.8988 H           1 MOL       0.0586
     56 H24        63.3425   44.0345   35.6591 H           1 MOL       0.0702
     57 H25        60.6485   43.6649   37.0974 H           1 MOL       0.0654
     58 H26        61.2781   43.8954   34.1016 H           1 MOL       0.0674
     59 H27        60.7207   41.5125   33.9638 H           1 MOL       0.0850
     60 H28        60.3020   41.4523   35.6843 H           1 MOL       0.0850
     61 H29        63.2072   43.4390   39.6107 H           1 MOL       0.2095
     62 H30        59.0973   43.2308   33.9263 H           1 MOL       0.2101
     63 H31        62.9401   41.9998   34.5111 H           1 MOL       0.2348
     64 H32        62.4941   40.6313   35.3187 H           1 MOL       0.2348
@<TRIPOS>BOND
     1     1     2   1
     2     6     1   1
     3     1     7   1
     4     2     3   1
     5     2     8   1
     6     4     3   1
     7     3     9   1
     8     4     5   1
     9    10     4   1
    10     5    11   1
    11     6    10   1
    12    20     6   1
    13    12    13   1
    14    17    12   1
    15    12    18   1
    16    13    14   1
    17    13    19   1
    18    15    14   1
    19    14    20   1
    20    15    16   1
    21    21    15   1
    22    16    22   1
    23    17    21   1
    24    30    17   1
    25    24    23   1
    26    23    28   1
    27    25    24   1
    28    24    29   1
    29    25    26   1
    30    25    30   1
    31    26    27   1
    32    26    31   1
    33    27    32   1
    34    29    32   1
    35     1    33   1
    36     2    34   1
    37     3    35   1
    38     4    36   1
    39     5    37   1
    40     5    38   1
    41     6    39   1
    42     7    40   1
    43     8    41   1
    44     9    42   1
    45    11    43   1
    46    12    44   1
    47    13    45   1
    48    14    46   1
    49    15    47   1
    50    16    48   1
    51    16    49   1
    52    17    50   1
    53    18    51   1
    54    19    52   1
    55    22    53   1
    56    23    54   1
    57    23    55   1
    58    24    56   1
    59    25    57   1
    60    26    58   1
    61    27    59   1
    62    27    60   1
    63    28    61   1
    64    31    62   1
    65    32    63   1
    66    32    64   1
@<TRIPOS>SUBSTRUCTURE
     1  MOL      1

