@<TRIPOS>MOLECULE
1w3l_ligand_066
    64    66
SMALL
GAST_HUCK
****
This file was generated by PARSER (from files_GN.cpp)

@<TRIPOS>ATOM
      1 C2         63.8043   39.9784   37.6972 C.3         1 MOL       0.1341
      2 C3         64.3698   38.6476   37.1244 C.3         1 MOL       0.1141
      3 C4         65.1976   37.9111   38.2044 C.3         1 MOL       0.1119
      4 C5         64.3196   37.7016   39.4720 C.3         1 MOL       0.1130
      5 C6         65.1163   37.1029   40.6576 C.3         1 MOL       0.0730
      6 C1         62.9531   39.7032   38.9772 C.3         1 MOL       0.1884
      7 O2         63.0611   40.6590   36.6878 O.3         1 MOL      -0.3841
      8 O3         65.1751   38.9108   35.9735 O.3         1 MOL      -0.3864
      9 O4         65.6635   36.6619   37.7079 O.3         1 MOL      -0.3865
     10 O5         63.7461   38.9499   39.9199 O.3         1 MOL      -0.3405
     11 O6         65.9309   38.0804   41.3059 O.3         1 MOL      -0.3924
     12 C2         59.5155   43.1852   39.8427 C.3         1 MOL       0.1341
     13 C3         60.4784   42.0059   40.1919 C.3         1 MOL       0.1144
     14 C4         61.6416   41.8485   39.1725 C.3         1 MOL       0.1184
     15 C5         62.3176   43.2430   38.9758 C.3         1 MOL       0.1134
     16 C6         63.4282   43.3107   37.8996 C.3         1 MOL       0.0730
     17 C1         60.2971   44.4963   39.5387 C.3         1 MOL       0.1884
     18 O2         58.5984   43.3943   40.9210 O.3         1 MOL      -0.3841
     19 O3         59.7367   40.7890   40.2871 O.3         1 MOL      -0.3864
     20 O4         62.5810   40.8903   39.7090 O.3         1 MOL      -0.3401
     21 O5         61.3276   44.2034   38.5801 O.3         1 MOL      -0.3405
     22 O6         62.9012   43.3708   36.5738 O.3         1 MOL      -0.3924
     23 C6         60.7211   49.1000   38.9606 C.3         1 MOL       0.0782
     24 C5         59.7234   47.9442   39.2496 C.3         1 MOL       0.1538
     25 C4         59.9327   46.6704   38.3615 C.3         1 MOL       0.1259
     26 C3         59.2328   46.7947   36.9748 C.3         1 MOL       0.1245
     27 C2         57.8206   47.4162   37.1032 C.3         1 MOL       0.0256
     28 O6         61.8786   49.0366   39.7965 O.3         1 MOL      -0.3922
     29 O5         58.3545   48.4101   39.1752 O.3         1 MOL      -0.3215
     30 O4         59.3845   45.4872   39.0018 O.3         1 MOL      -0.3398
     31 O3         60.0057   47.5835   36.0689 O.3         1 MOL      -0.3838
     32 N1         57.9081   48.6565   37.9009 N.4         1 MOL       0.3939
     33 H1         64.6453   40.6287   37.9672 H           1 MOL       0.0671
     34 H2         63.5410   38.0059   36.8036 H           1 MOL       0.0648
     35 H3         66.0647   38.5212   38.4539 H           1 MOL       0.0647
     36 H4         63.5143   37.0039   39.2321 H           1 MOL       0.0647
     37 H5         65.7581   36.2845   40.3232 H           1 MOL       0.0584
     38 H6         64.4192   36.7007   41.4002 H           1 MOL       0.0584
     39 H7         62.0567   39.1253   38.7269 H           1 MOL       0.0938
     40 H8         62.5148   39.9747   36.2563 H           1 MOL       0.2101
     41 H9         64.5310   38.9165   35.2320 H           1 MOL       0.2100
     42 H10        66.2450   36.8801   36.9483 H           1 MOL       0.2100
     43 H11        66.6425   38.2914   40.6657 H           1 MOL       0.2095
     44 H12        58.9348   42.9065   38.9551 H           1 MOL       0.0671
     45 H13        60.8963   42.1981   41.1865 H           1 MOL       0.0648
     46 H14        61.2174   41.5235   38.2209 H           1 MOL       0.0651
     47 H15        62.7676   43.5545   39.9248 H           1 MOL       0.0647
     48 H16        64.1061   42.4615   37.9811 H           1 MOL       0.0584
     49 H17        64.0175   44.2210   38.0529 H           1 MOL       0.0584
     50 H18        60.7389   44.8913   40.4593 H           1 MOL       0.0938
     51 H19        57.9505   44.0514   40.5869 H           1 MOL       0.2101
     52 H20        59.3917   40.6197   39.3845 H           1 MOL       0.2100
     53 H21        62.4300   42.5230   36.4454 H           1 MOL       0.2095
     54 H22        60.2413   50.0627   39.1571 H           1 MOL       0.0586
     55 H23        61.0399   49.0968   37.9159 H           1 MOL       0.0586
     56 H24        59.8742   47.6513   40.2899 H           1 MOL       0.0702
     57 H25        61.0059   46.5626   38.1750 H           1 MOL       0.0654
     58 H26        59.1334   45.8016   36.5268 H           1 MOL       0.0674
     59 H27        57.1399   46.7184   37.6004 H           1 MOL       0.0850
     60 H28        57.4145   47.6466   36.1170 H           1 MOL       0.0850
     61 H29        62.2840   48.1532   39.6676 H           1 MOL       0.2095
     62 H30        60.8060   47.0502   35.8822 H           1 MOL       0.2101
     63 H31        56.9774   49.0768   37.9556 H           1 MOL       0.2348
     64 H32        58.5360   49.3154   37.4332 H           1 MOL       0.2348
@<TRIPOS>BOND
     1     1     2   1
     2     6     1   1
     3     1     7   1
     4     2     3   1
     5     2     8   1
     6     4     3   1
     7     3     9   1
     8     4     5   1
     9    10     4   1
    10     5    11   1
    11     6    10   1
    12    20     6   1
    13    12    13   1
    14    17    12   1
    15    12    18   1
    16    13    14   1
    17    13    19   1
    18    15    14   1
    19    14    20   1
    20    15    16   1
    21    21    15   1
    22    16    22   1
    23    17    21   1
    24    30    17   1
    25    24    23   1
    26    23    28   1
    27    25    24   1
    28    24    29   1
    29    25    26   1
    30    25    30   1
    31    26    27   1
    32    26    31   1
    33    27    32   1
    34    29    32   1
    35     1    33   1
    36     2    34   1
    37     3    35   1
    38     4    36   1
    39     5    37   1
    40     5    38   1
    41     6    39   1
    42     7    40   1
    43     8    41   1
    44     9    42   1
    45    11    43   1
    46    12    44   1
    47    13    45   1
    48    14    46   1
    49    15    47   1
    50    16    48   1
    51    16    49   1
    52    17    50   1
    53    18    51   1
    54    19    52   1
    55    22    53   1
    56    23    54   1
    57    23    55   1
    58    24    56   1
    59    25    57   1
    60    26    58   1
    61    27    59   1
    62    27    60   1
    63    28    61   1
    64    31    62   1
    65    32    63   1
    66    32    64   1
@<TRIPOS>SUBSTRUCTURE
     1  MOL      1

