@<TRIPOS>MOLECULE
1w3l_ligand_075
    64    66
SMALL
GAST_HUCK
****
This file was generated by PARSER (from files_GN.cpp)

@<TRIPOS>ATOM
      1 C2         61.4449   42.1072   36.7249 C.3         1 MOL       0.1341
      2 C3         61.8178   42.2868   35.2191 C.3         1 MOL       0.1141
      3 C4         61.2387   43.6174   34.6320 C.3         1 MOL       0.1119
      4 C5         61.6346   44.8047   35.5566 C.3         1 MOL       0.1130
      5 C6         60.9825   46.1709   35.2041 C.3         1 MOL       0.0730
      6 C1         61.7749   43.3865   37.5505 C.3         1 MOL       0.1884
      7 O2         62.1563   40.9989   37.2857 O.3         1 MOL      -0.3841
      8 O3         61.3256   41.1797   34.4512 O.3         1 MOL      -0.3864
      9 O4         61.7605   43.8705   33.3274 O.3         1 MOL      -0.3865
     10 O5         61.1906   44.5188   36.8871 O.3         1 MOL      -0.3405
     11 O6         61.9401   47.2292   35.2382 O.3         1 MOL      -0.3924
     12 C2         60.5658   47.0012   40.0145 C.3         1 MOL       0.1341
     13 C3         61.0596   45.8684   39.0749 C.3         1 MOL       0.1144
     14 C4         61.1752   44.4620   39.7737 C.3         1 MOL       0.1184
     15 C5         59.9735   44.2279   40.7516 C.3         1 MOL       0.1134
     16 C6         60.2812   43.1251   41.7939 C.3         1 MOL       0.0730
     17 C1         59.2453   46.5541   40.6937 C.3         1 MOL       0.1884
     18 O2         60.3716   48.1943   39.2655 O.3         1 MOL      -0.3841
     19 O3         62.3291   46.2365   38.5301 O.3         1 MOL      -0.3864
     20 O4         61.1715   43.3203   38.8622 O.3         1 MOL      -0.3401
     21 O5         59.5631   45.4012   41.4910 O.3         1 MOL      -0.3405
     22 O6         61.4923   43.3846   42.5025 O.3         1 MOL      -0.3924
     23 C6         59.4898   50.5494   41.5593 C.3         1 MOL       0.0782
     24 C5         58.0809   49.9423   41.7733 C.3         1 MOL       0.1538
     25 C4         57.8580   48.5980   41.0082 C.3         1 MOL       0.1259
     26 C3         56.3660   48.1746   41.1290 C.3         1 MOL       0.1245
     27 C2         55.4299   49.3557   40.7710 C.3         1 MOL       0.0256
     28 O6         59.5056   51.5701   40.5595 O.3         1 MOL      -0.3922
     29 O5         57.1110   50.9246   41.3453 O.3         1 MOL      -0.3215
     30 O4         58.7262   47.5769   41.5691 O.3         1 MOL      -0.3398
     31 O3         56.0845   47.0694   40.2741 O.3         1 MOL      -0.3838
     32 N1         55.8130   50.5445   41.5599 N.4         1 MOL       0.3939
     33 H1         60.3700   41.9034   36.8054 H           1 MOL       0.0671
     34 H2         62.9156   42.2993   35.1306 H           1 MOL       0.0648
     35 H3         60.1465   43.5378   34.5659 H           1 MOL       0.0647
     36 H4         62.7247   44.9236   35.5375 H           1 MOL       0.0647
     37 H5         60.1961   46.4261   35.9143 H           1 MOL       0.0584
     38 H6         60.5241   46.1508   34.2069 H           1 MOL       0.0584
     39 H7         62.8583   43.5088   37.6464 H           1 MOL       0.0938
     40 H8         62.0244   40.2643   36.6518 H           1 MOL       0.2101
     41 H9         61.8686   41.1749   33.6278 H           1 MOL       0.2100
     42 H10        61.9873   43.0035   32.9328 H           1 MOL       0.2100
     43 H11        61.4103   48.0489   35.1483 H           1 MOL       0.2095
     44 H12        61.3046   47.1919   40.7952 H           1 MOL       0.0671
     45 H13        60.3373   45.7838   38.2540 H           1 MOL       0.0648
     46 H14        62.1085   44.4528   40.3343 H           1 MOL       0.0651
     47 H15        59.1124   43.8882   40.1658 H           1 MOL       0.0647
     48 H16        60.3668   42.1526   41.3060 H           1 MOL       0.0584
     49 H17        59.4662   43.0674   42.5205 H           1 MOL       0.0584
     50 H18        58.4980   46.2763   39.9378 H           1 MOL       0.0938
     51 H19        61.2519   48.6420   39.2515 H           1 MOL       0.2101
     52 H20        62.1663   47.0431   38.0032 H           1 MOL       0.2100
     53 H21        61.3600   44.2541   42.9377 H           1 MOL       0.2095
     54 H22        60.2011   49.7700   41.2803 H           1 MOL       0.0586
     55 H23        59.8426   50.9989   42.4957 H           1 MOL       0.0586
     56 H24        57.9530   49.7672   42.8483 H           1 MOL       0.0702
     57 H25        58.0786   48.7762   39.9498 H           1 MOL       0.0654
     58 H26        56.1647   47.8642   42.1606 H           1 MOL       0.0674
     59 H27        54.3955   49.0970   40.9997 H           1 MOL       0.0850
     60 H28        55.5032   49.5880   39.7066 H           1 MOL       0.0850
     61 H29        58.8559   52.2376   40.8668 H           1 MOL       0.2095
     62 H30        55.1577   46.8127   40.4714 H           1 MOL       0.2101
     63 H31        55.6767   50.3490   42.5530 H           1 MOL       0.2348
     64 H32        55.2008   51.3185   41.2937 H           1 MOL       0.2348
@<TRIPOS>BOND
     1     1     2   1
     2     6     1   1
     3     1     7   1
     4     2     3   1
     5     2     8   1
     6     4     3   1
     7     3     9   1
     8     4     5   1
     9    10     4   1
    10     5    11   1
    11     6    10   1
    12    20     6   1
    13    12    13   1
    14    17    12   1
    15    12    18   1
    16    13    14   1
    17    13    19   1
    18    15    14   1
    19    14    20   1
    20    15    16   1
    21    21    15   1
    22    16    22   1
    23    17    21   1
    24    30    17   1
    25    24    23   1
    26    23    28   1
    27    25    24   1
    28    24    29   1
    29    25    26   1
    30    25    30   1
    31    26    27   1
    32    26    31   1
    33    27    32   1
    34    29    32   1
    35     1    33   1
    36     2    34   1
    37     3    35   1
    38     4    36   1
    39     5    37   1
    40     5    38   1
    41     6    39   1
    42     7    40   1
    43     8    41   1
    44     9    42   1
    45    11    43   1
    46    12    44   1
    47    13    45   1
    48    14    46   1
    49    15    47   1
    50    16    48   1
    51    16    49   1
    52    17    50   1
    53    18    51   1
    54    19    52   1
    55    22    53   1
    56    23    54   1
    57    23    55   1
    58    24    56   1
    59    25    57   1
    60    26    58   1
    61    27    59   1
    62    27    60   1
    63    28    61   1
    64    31    62   1
    65    32    63   1
    66    32    64   1
@<TRIPOS>SUBSTRUCTURE
     1  MOL      1

