@<TRIPOS>MOLECULE
1w3l_ligand_004
    64    66
SMALL
GAST_HUCK
****
This file was generated by PARSER (from files_GN.cpp)

@<TRIPOS>ATOM
      1 C2         60.2640   43.4713   35.0704 C.3         1 MOL       0.1341
      2 C3         61.1211   42.1694   35.1311 C.3         1 MOL       0.1141
      3 C4         62.5955   42.4698   35.5447 C.3         1 MOL       0.1119
      4 C5         62.6326   43.3878   36.8057 C.3         1 MOL       0.1130
      5 C6         64.0426   43.9615   37.1104 C.3         1 MOL       0.0730
      6 C1         60.3692   44.2245   36.4174 C.3         1 MOL       0.1884
      7 O2         58.9093   43.1552   34.7881 O.3         1 MOL      -0.3841
      8 O3         61.0681   41.4860   33.8660 O.3         1 MOL      -0.3864
      9 O4         63.3170   41.2707   35.8106 O.3         1 MOL      -0.3865
     10 O5         61.7607   44.5522   36.6564 O.3         1 MOL      -0.3405
     11 O6         64.9450   42.9551   37.5450 O.3         1 MOL      -0.3924
     12 C2         59.2236   46.8558   39.9977 C.3         1 MOL       0.1341
     13 C3         59.2576   45.7675   38.8830 C.3         1 MOL       0.1144
     14 C4         59.5613   46.3812   37.4761 C.3         1 MOL       0.1184
     15 C5         60.8377   47.2944   37.5615 C.3         1 MOL       0.1134
     16 C6         61.1136   48.0400   36.2255 C.3         1 MOL       0.0730
     17 C1         60.5345   47.6843   39.9465 C.3         1 MOL       0.1884
     18 O2         59.0875   46.2320   41.2779 O.3         1 MOL      -0.3841
     19 O3         58.0249   45.0372   38.8512 O.3         1 MOL      -0.3864
     20 O4         59.5853   45.4236   36.3826 O.3         1 MOL      -0.3401
     21 O5         60.6944   48.2705   38.6318 O.3         1 MOL      -0.3405
     22 O6         62.5061   48.0870   35.9443 O.3         1 MOL      -0.3924
     23 C6         62.1810   47.8213   43.2653 C.3         1 MOL       0.0782
     24 C5         62.1232   49.2840   42.7502 C.3         1 MOL       0.1538
     25 C4         61.7671   49.3799   41.2354 C.3         1 MOL       0.1259
     26 C3         61.7090   50.8812   40.8535 C.3         1 MOL       0.1245
     27 C2         63.0180   51.5953   41.2767 C.3         1 MOL       0.0256
     28 O6         63.1259   47.7023   44.3365 O.3         1 MOL      -0.3922
     29 O5         63.3975   49.9318   42.9533 O.3         1 MOL      -0.3215
     30 O4         60.4961   48.7369   40.9369 O.3         1 MOL      -0.3398
     31 O3         61.4903   51.0297   39.4560 O.3         1 MOL      -0.3838
     32 N1         63.3499   51.2802   42.6858 N.4         1 MOL       0.3939
     33 H1         60.6389   44.1148   34.2718 H           1 MOL       0.0671
     34 H2         60.6810   41.4951   35.8681 H           1 MOL       0.0648
     35 H3         63.0884   43.0000   34.7170 H           1 MOL       0.0647
     36 H4         62.3129   42.8148   37.6839 H           1 MOL       0.0647
     37 H5         63.9704   44.7188   37.9089 H           1 MOL       0.0584
     38 H6         64.4523   44.4527   36.2135 H           1 MOL       0.0584
     39 H7         59.9807   43.5765   37.2090 H           1 MOL       0.0938
     40 H8         58.8684   43.0694   33.8068 H           1 MOL       0.2101
     41 H9         61.9040   41.6952   33.3882 H           1 MOL       0.2100
     42 H10        62.7070   40.5228   35.6146 H           1 MOL       0.2100
     43 H11        64.5857   42.6584   38.4087 H           1 MOL       0.2095
     44 H12        58.3600   47.5112   39.8313 H           1 MOL       0.0671
     45 H13        60.0524   45.0544   39.1477 H           1 MOL       0.0648
     46 H14        58.7230   47.0465   37.2527 H           1 MOL       0.0651
     47 H15        61.7130   46.6756   37.7914 H           1 MOL       0.0647
     48 H16        60.7080   49.0538   36.2562 H           1 MOL       0.0584
     49 H17        60.6575   47.5093   35.3909 H           1 MOL       0.0584
     50 H18        61.3671   47.0124   40.1758 H           1 MOL       0.0938
     51 H19        58.8453   46.9597   41.8922 H           1 MOL       0.2101
     52 H20        57.3343   45.7059   38.6333 H           1 MOL       0.2100
     53 H21        62.8102   49.0060   36.1772 H           1 MOL       0.2095
     54 H22        62.4825   47.1308   42.4739 H           1 MOL       0.0586
     55 H23        61.1841   47.5178   43.6322 H           1 MOL       0.0586
     56 H24        61.3575   49.7996   43.3464 H           1 MOL       0.0702
     57 H25        62.5983   48.9310   40.6753 H           1 MOL       0.0654
     58 H26        60.8643   51.3489   41.3703 H           1 MOL       0.0674
     59 H27        62.9027   52.6774   41.1718 H           1 MOL       0.0850
     60 H28        63.8478   51.2745   40.6374 H           1 MOL       0.0850
     61 H29        62.7006   47.0874   44.9983 H           1 MOL       0.2095
     62 H30        62.2880   50.6659   39.0249 H           1 MOL       0.2101
     63 H31        62.6587   51.7192   43.2960 H           1 MOL       0.2348
     64 H32        64.2700   51.6864   42.8928 H           1 MOL       0.2348
@<TRIPOS>BOND
     1     1     2   1
     2     6     1   1
     3     1     7   1
     4     2     3   1
     5     2     8   1
     6     4     3   1
     7     3     9   1
     8     4     5   1
     9    10     4   1
    10     5    11   1
    11     6    10   1
    12    20     6   1
    13    12    13   1
    14    17    12   1
    15    12    18   1
    16    13    14   1
    17    13    19   1
    18    15    14   1
    19    14    20   1
    20    15    16   1
    21    21    15   1
    22    16    22   1
    23    17    21   1
    24    30    17   1
    25    24    23   1
    26    23    28   1
    27    25    24   1
    28    24    29   1
    29    25    26   1
    30    25    30   1
    31    26    27   1
    32    26    31   1
    33    27    32   1
    34    29    32   1
    35     1    33   1
    36     2    34   1
    37     3    35   1
    38     4    36   1
    39     5    37   1
    40     5    38   1
    41     6    39   1
    42     7    40   1
    43     8    41   1
    44     9    42   1
    45    11    43   1
    46    12    44   1
    47    13    45   1
    48    14    46   1
    49    15    47   1
    50    16    48   1
    51    16    49   1
    52    17    50   1
    53    18    51   1
    54    19    52   1
    55    22    53   1
    56    23    54   1
    57    23    55   1
    58    24    56   1
    59    25    57   1
    60    26    58   1
    61    27    59   1
    62    27    60   1
    63    28    61   1
    64    31    62   1
    65    32    63   1
    66    32    64   1
@<TRIPOS>SUBSTRUCTURE
     1  MOL      1

