@<TRIPOS>MOLECULE
1w3l_ligand_084
    64    66
SMALL
GAST_HUCK
****
This file was generated by PARSER (from files_GN.cpp)

@<TRIPOS>ATOM
      1 C2         57.8127   47.7463   36.9964 C.3         1 MOL       0.1341
      2 C3         56.5239   48.1806   37.7577 C.3         1 MOL       0.1141
      3 C4         55.3824   47.1394   37.5524 C.3         1 MOL       0.1119
      4 C5         55.8845   45.7053   37.8942 C.3         1 MOL       0.1130
      5 C6         54.8335   44.5980   37.6022 C.3         1 MOL       0.0730
      6 C1         58.1987   46.2902   37.3768 C.3         1 MOL       0.1884
      7 O2         58.8841   48.6496   37.2801 O.3         1 MOL      -0.3841
      8 O3         56.0927   49.4707   37.3207 O.3         1 MOL      -0.3864
      9 O4         54.2584   47.4952   38.3621 O.3         1 MOL      -0.3865
     10 O5         57.0797   45.4050   37.1327 O.3         1 MOL      -0.3405
     11 O6         54.7692   44.2813   36.2129 O.3         1 MOL      -0.3924
     12 C2         61.0819   42.5267   35.9565 C.3         1 MOL       0.1341
     13 C3         60.4020   43.8906   35.6443 C.3         1 MOL       0.1144
     14 C4         59.9593   44.6012   36.9567 C.3         1 MOL       0.1184
     15 C5         61.2008   44.7618   37.8938 C.3         1 MOL       0.1134
     16 C6         60.8652   45.3637   39.2863 C.3         1 MOL       0.0730
     17 C1         62.2260   42.6948   36.9973 C.3         1 MOL       0.1884
     18 O2         61.5706   41.9303   34.7540 O.3         1 MOL      -0.3841
     19 O3         59.2591   43.7086   34.8067 O.3         1 MOL      -0.3864
     20 O4         59.3527   45.8717   36.6063 O.3         1 MOL      -0.3401
     21 O5         61.7771   43.4608   38.1442 O.3         1 MOL      -0.3405
     22 O6         60.8774   46.7917   39.2601 O.3         1 MOL      -0.3924
     23 C6         65.0624   39.8967   38.4859 C.3         1 MOL       0.0782
     24 C5         63.5816   39.6474   38.8712 C.3         1 MOL       0.1538
     25 C4         62.6793   40.9095   38.7083 C.3         1 MOL       0.1259
     26 C3         61.2377   40.5379   39.1621 C.3         1 MOL       0.1245
     27 C2         61.2784   39.9216   40.5855 C.3         1 MOL       0.0256
     28 O6         65.9538   39.2781   39.4152 O.3         1 MOL      -0.3922
     29 O5         63.5310   39.2162   40.2491 O.3         1 MOL      -0.3215
     30 O4         62.7510   41.3898   37.3454 O.3         1 MOL      -0.3398
     31 O3         60.3521   41.6508   39.1673 O.3         1 MOL      -0.3838
     32 N1         62.2708   38.8232   40.6313 N.4         1 MOL       0.3939
     33 H1         57.6243   47.7942   35.9204 H           1 MOL       0.0671
     34 H2         56.7491   48.2474   38.8301 H           1 MOL       0.0648
     35 H3         55.0539   47.1624   36.5100 H           1 MOL       0.0647
     36 H4         56.1153   45.6557   38.9676 H           1 MOL       0.0647
     37 H5         53.8414   44.9174   37.9412 H           1 MOL       0.0584
     38 H6         55.1088   43.6859   38.1394 H           1 MOL       0.0584
     39 H7         58.4510   46.2680   38.4407 H           1 MOL       0.0938
     40 H8         59.0280   48.5790   38.2471 H           1 MOL       0.2101
     41 H9         56.7908   50.0932   37.6186 H           1 MOL       0.2100
     42 H10        54.5717   47.4411   39.2895 H           1 MOL       0.2100
     43 H11        55.6792   44.4165   35.8772 H           1 MOL       0.2095
     44 H12        60.3296   41.8459   36.3669 H           1 MOL       0.0671
     45 H13        61.1129   44.5294   35.1071 H           1 MOL       0.0648
     46 H14        59.2422   43.9374   37.4601 H           1 MOL       0.0651
     47 H15        61.9559   45.3960   37.4193 H           1 MOL       0.0647
     48 H16        61.6006   45.0307   40.0303 H           1 MOL       0.0584
     49 H17        59.8854   45.0077   39.6198 H           1 MOL       0.0584
     50 H18        63.0476   43.2439   36.5241 H           1 MOL       0.0938
     51 H19        62.4719   42.2906   34.5981 H           1 MOL       0.2101
     52 H20        59.5617   43.2119   34.0155 H           1 MOL       0.2100
     53 H21        61.8015   47.0305   39.4856 H           1 MOL       0.2095
     54 H22        65.2880   40.9646   38.4674 H           1 MOL       0.0586
     55 H23        65.2571   39.4840   37.4905 H           1 MOL       0.0586
     56 H24        63.2135   38.8389   38.2290 H           1 MOL       0.0702
     57 H25        63.0771   41.6664   39.3885 H           1 MOL       0.0654
     58 H26        60.8251   39.8022   38.4656 H           1 MOL       0.0674
     59 H27        60.3007   39.5241   40.8590 H           1 MOL       0.0850
     60 H28        61.5540   40.6776   41.3276 H           1 MOL       0.0850
     61 H29        66.7812   39.8082   39.3766 H           1 MOL       0.2095
     62 H30        60.7754   42.3231   39.7443 H           1 MOL       0.2101
     63 H31        61.9619   38.0698   40.0130 H           1 MOL       0.2348
     64 H32        62.3170   38.4525   41.5855 H           1 MOL       0.2348
@<TRIPOS>BOND
     1     1     2   1
     2     6     1   1
     3     1     7   1
     4     2     3   1
     5     2     8   1
     6     4     3   1
     7     3     9   1
     8     4     5   1
     9    10     4   1
    10     5    11   1
    11     6    10   1
    12    20     6   1
    13    12    13   1
    14    17    12   1
    15    12    18   1
    16    13    14   1
    17    13    19   1
    18    15    14   1
    19    14    20   1
    20    15    16   1
    21    21    15   1
    22    16    22   1
    23    17    21   1
    24    30    17   1
    25    24    23   1
    26    23    28   1
    27    25    24   1
    28    24    29   1
    29    25    26   1
    30    25    30   1
    31    26    27   1
    32    26    31   1
    33    27    32   1
    34    29    32   1
    35     1    33   1
    36     2    34   1
    37     3    35   1
    38     4    36   1
    39     5    37   1
    40     5    38   1
    41     6    39   1
    42     7    40   1
    43     8    41   1
    44     9    42   1
    45    11    43   1
    46    12    44   1
    47    13    45   1
    48    14    46   1
    49    15    47   1
    50    16    48   1
    51    16    49   1
    52    17    50   1
    53    18    51   1
    54    19    52   1
    55    22    53   1
    56    23    54   1
    57    23    55   1
    58    24    56   1
    59    25    57   1
    60    26    58   1
    61    27    59   1
    62    27    60   1
    63    28    61   1
    64    31    62   1
    65    32    63   1
    66    32    64   1
@<TRIPOS>SUBSTRUCTURE
     1  MOL      1

