@<TRIPOS>MOLECULE
1w3l_ligand_065
    64    66
SMALL
GAST_HUCK
****
This file was generated by PARSER (from files_GN.cpp)

@<TRIPOS>ATOM
      1 C2         60.3603   44.4667   36.3855 C.3         1 MOL       0.1341
      2 C3         60.3877   43.5266   35.1545 C.3         1 MOL       0.1141
      3 C4         61.6439   42.6156   35.1591 C.3         1 MOL       0.1119
      4 C5         61.8031   41.9089   36.5404 C.3         1 MOL       0.1130
      5 C6         63.1582   41.1715   36.6889 C.3         1 MOL       0.0730
      6 C1         60.5005   43.6284   37.6843 C.3         1 MOL       0.1884
      7 O2         59.1354   45.1953   36.3899 O.3         1 MOL      -0.3841
      8 O3         60.3407   44.3118   33.9619 O.3         1 MOL      -0.3864
      9 O4         61.4997   41.6389   34.1238 O.3         1 MOL      -0.3865
     10 O5         61.7113   42.8514   37.6273 O.3         1 MOL      -0.3405
     11 O6         64.1705   42.0075   37.2529 O.3         1 MOL      -0.3924
     12 C2         57.5824   44.7439   41.1608 C.3         1 MOL       0.1341
     13 C3         58.4248   44.9345   39.8686 C.3         1 MOL       0.1144
     14 C4         59.8502   44.3239   40.0158 C.3         1 MOL       0.1184
     15 C5         59.7666   42.8621   40.5690 C.3         1 MOL       0.1134
     16 C6         61.1498   42.2208   40.8678 C.3         1 MOL       0.0730
     17 C1         57.6213   43.2589   41.6119 C.3         1 MOL       0.1884
     18 O2         56.2390   45.1660   40.9226 O.3         1 MOL      -0.3841
     19 O3         58.5310   46.3200   39.5442 O.3         1 MOL      -0.3864
     20 O4         60.6400   44.5163   38.8141 O.3         1 MOL      -0.3401
     21 O5         58.9944   42.8470   41.7901 O.3         1 MOL      -0.3405
     22 O6         62.1342   43.1747   41.2988 O.3         1 MOL      -0.3924
     23 C6         56.8697   40.0156   41.7668 C.3         1 MOL       0.0782
     24 C5         56.2976   40.6103   43.0809 C.3         1 MOL       0.1538
     25 C4         57.0007   41.9060   43.6298 C.3         1 MOL       0.1259
     26 C3         56.3905   42.2520   45.0204 C.3         1 MOL       0.1245
     27 C2         56.3992   41.0211   45.9549 C.3         1 MOL       0.0256
     28 O6         58.2834   40.1759   41.6627 O.3         1 MOL      -0.3922
     29 O5         56.4101   39.5707   44.0776 O.3         1 MOL      -0.3215
     30 O4         56.8584   43.1093   42.8283 O.3         1 MOL      -0.3398
     31 O3         57.1140   43.3215   45.6271 O.3         1 MOL      -0.3838
     32 N1         55.7877   39.8723   45.2614 N.4         1 MOL       0.3939
     33 H1         61.1871   45.1808   36.3240 H           1 MOL       0.0671
     34 H2         59.4875   42.9040   35.1731 H           1 MOL       0.0648
     35 H3         62.5299   43.2290   34.9554 H           1 MOL       0.0647
     36 H4         61.0072   41.1680   36.6511 H           1 MOL       0.0647
     37 H5         63.5123   40.8214   35.7133 H           1 MOL       0.0584
     38 H6         63.0368   40.2959   37.3362 H           1 MOL       0.0584
     39 H7         59.6307   42.9654   37.7898 H           1 MOL       0.0938
     40 H8         59.1703   45.7619   37.1880 H           1 MOL       0.2101
     41 H9         60.0015   43.7079   33.2692 H           1 MOL       0.2100
     42 H10        62.2732   41.7601   33.5326 H           1 MOL       0.2100
     43 H11        64.0237   41.9804   38.2254 H           1 MOL       0.2095
     44 H12        57.9985   45.3665   41.9577 H           1 MOL       0.0671
     45 H13        57.9133   44.4378   39.0395 H           1 MOL       0.0648
     46 H14        60.3597   44.9240   40.7761 H           1 MOL       0.0651
     47 H15        59.2847   42.2190   39.8297 H           1 MOL       0.0647
     48 H16        61.5270   41.7068   39.9673 H           1 MOL       0.0584
     49 H17        61.0507   41.4561   41.6500 H           1 MOL       0.0584
     50 H18        57.1373   42.6620   40.8358 H           1 MOL       0.0938
     51 H19        55.7865   45.0910   41.7887 H           1 MOL       0.2101
     52 H20        57.6142   46.6175   39.3814 H           1 MOL       0.2100
     53 H21        62.8903   43.0336   40.6750 H           1 MOL       0.2095
     54 H22        56.3982   40.4766   40.8977 H           1 MOL       0.0586
     55 H23        56.6386   38.9478   41.7159 H           1 MOL       0.0586
     56 H24        55.2380   40.8274   42.9066 H           1 MOL       0.0702
     57 H25        58.0648   41.6847   43.7968 H           1 MOL       0.0654
     58 H26        55.3590   42.5856   44.8805 H           1 MOL       0.0674
     59 H27        55.8310   41.2325   46.8592 H           1 MOL       0.0850
     60 H28        57.4225   40.7659   46.2385 H           1 MOL       0.0850
     61 H29        58.6455   39.8049   42.4947 H           1 MOL       0.2095
     62 H30        56.6068   43.5506   46.4343 H           1 MOL       0.2101
     63 H31        54.8016   40.0681   45.0789 H           1 MOL       0.2348
     64 H32        55.8480   39.0531   45.8720 H           1 MOL       0.2348
@<TRIPOS>BOND
     1     1     2   1
     2     6     1   1
     3     1     7   1
     4     2     3   1
     5     2     8   1
     6     4     3   1
     7     3     9   1
     8     4     5   1
     9    10     4   1
    10     5    11   1
    11     6    10   1
    12    20     6   1
    13    12    13   1
    14    17    12   1
    15    12    18   1
    16    13    14   1
    17    13    19   1
    18    15    14   1
    19    14    20   1
    20    15    16   1
    21    21    15   1
    22    16    22   1
    23    17    21   1
    24    30    17   1
    25    24    23   1
    26    23    28   1
    27    25    24   1
    28    24    29   1
    29    25    26   1
    30    25    30   1
    31    26    27   1
    32    26    31   1
    33    27    32   1
    34    29    32   1
    35     1    33   1
    36     2    34   1
    37     3    35   1
    38     4    36   1
    39     5    37   1
    40     5    38   1
    41     6    39   1
    42     7    40   1
    43     8    41   1
    44     9    42   1
    45    11    43   1
    46    12    44   1
    47    13    45   1
    48    14    46   1
    49    15    47   1
    50    16    48   1
    51    16    49   1
    52    17    50   1
    53    18    51   1
    54    19    52   1
    55    22    53   1
    56    23    54   1
    57    23    55   1
    58    24    56   1
    59    25    57   1
    60    26    58   1
    61    27    59   1
    62    27    60   1
    63    28    61   1
    64    31    62   1
    65    32    63   1
    66    32    64   1
@<TRIPOS>SUBSTRUCTURE
     1  MOL      1

