@<TRIPOS>MOLECULE
1w3l_ligand_043
    64    66
SMALL
GAST_HUCK
****
This file was generated by PARSER (from files_GN.cpp)

@<TRIPOS>ATOM
      1 C2         59.5028   45.0053   37.3827 C.3         1 MOL       0.1341
      2 C3         59.8515   46.5131   37.5389 C.3         1 MOL       0.1141
      3 C4         59.8914   46.9259   39.0388 C.3         1 MOL       0.1119
      4 C5         60.7789   45.9361   39.8614 C.3         1 MOL       0.1130
      5 C6         60.7249   46.1766   41.3928 C.3         1 MOL       0.0730
      6 C1         60.4699   44.1504   38.2406 C.3         1 MOL       0.1884
      7 O2         59.5832   44.6186   36.0084 O.3         1 MOL      -0.3841
      8 O3         58.9003   47.3177   36.8419 O.3         1 MOL      -0.3864
      9 O4         60.3999   48.2571   39.1506 O.3         1 MOL      -0.3865
     10 O5         60.3749   44.5635   39.6237 O.3         1 MOL      -0.3405
     11 O6         61.4134   47.3645   41.7622 O.3         1 MOL      -0.3924
     12 C2         63.1312   40.6679   36.9122 C.3         1 MOL       0.1341
     13 C3         62.0546   41.7850   36.8714 C.3         1 MOL       0.1144
     14 C4         61.1212   41.7291   38.1243 C.3         1 MOL       0.1184
     15 C5         61.9626   41.6443   39.4441 C.3         1 MOL       0.1134
     16 C6         61.0925   41.2937   40.6755 C.3         1 MOL       0.0730
     17 C1         63.9145   40.7423   38.2459 C.3         1 MOL       0.1884
     18 O2         64.0317   40.8117   35.8121 O.3         1 MOL      -0.3841
     19 O3         61.2679   41.6823   35.6912 O.3         1 MOL      -0.3864
     20 O4         60.1021   42.7590   38.1111 O.3         1 MOL      -0.3401
     21 O5         62.9927   40.6373   39.3569 O.3         1 MOL      -0.3405
     22 O6         60.6367   39.9406   40.6096 O.3         1 MOL      -0.3924
     23 C6         66.7041   37.7526   40.9642 C.3         1 MOL       0.0782
     24 C5         66.5125   38.4774   39.6025 C.3         1 MOL       0.1538
     25 C4         65.0201   38.6432   39.1688 C.3         1 MOL       0.1259
     26 C3         64.4610   37.3561   38.4986 C.3         1 MOL       0.1245
     27 C2         65.4737   36.7814   37.4770 C.3         1 MOL       0.0256
     28 O6         67.9783   38.0598   41.5245 O.3         1 MOL      -0.3922
     29 O5         67.2940   37.8707   38.5475 O.3         1 MOL      -0.3215
     30 O4         64.9731   39.7553   38.2382 O.3         1 MOL      -0.3398
     31 O3         64.1778   36.3559   39.4762 O.3         1 MOL      -0.3838
     32 N1         66.8072   36.6670   38.1025 N.4         1 MOL       0.3939
     33 H1         58.4775   44.8425   37.7239 H           1 MOL       0.0671
     34 H2         60.8396   46.6983   37.0983 H           1 MOL       0.0648
     35 H3         58.8707   46.9096   39.4368 H           1 MOL       0.0647
     36 H4         61.8160   46.0556   39.5479 H           1 MOL       0.0647
     37 H5         61.1927   45.3419   41.9152 H           1 MOL       0.0584
     38 H6         59.6849   46.2551   41.7319 H           1 MOL       0.0584
     39 H7         61.4885   44.3308   37.8764 H           1 MOL       0.0938
     40 H8         60.3046   43.9558   35.9613 H           1 MOL       0.2101
     41 H9         58.9323   47.0108   35.9101 H           1 MOL       0.2100
     42 H10        59.6958   48.8349   38.7833 H           1 MOL       0.2100
     43 H11        62.3170   47.2414   41.3966 H           1 MOL       0.2095
     44 H12        62.6450   39.6940   36.8548 H           1 MOL       0.0671
     45 H13        62.5807   42.7417   36.8232 H           1 MOL       0.0648
     46 H14        60.5666   40.7856   38.0391 H           1 MOL       0.0651
     47 H15        62.4340   42.6123   39.6173 H           1 MOL       0.0647
     48 H16        60.2257   41.9570   40.7393 H           1 MOL       0.0584
     49 H17        61.6868   41.4171   41.5813 H           1 MOL       0.0584
     50 H18        64.4239   41.7085   38.3026 H           1 MOL       0.0938
     51 H19        63.6708   40.2237   35.1192 H           1 MOL       0.2101
     52 H20        60.8946   40.7790   35.7359 H           1 MOL       0.2100
     53 H21        60.0815   39.8189   41.4125 H           1 MOL       0.2095
     54 H22        66.6273   36.6724   40.8510 H           1 MOL       0.0586
     55 H23        65.9413   38.0761   41.6783 H           1 MOL       0.0586
     56 H24        66.9225   39.4850   39.7324 H           1 MOL       0.0702
     57 H25        64.4355   38.8571   40.0673 H           1 MOL       0.0654
     58 H26        63.5248   37.5796   37.9827 H           1 MOL       0.0674
     59 H27        65.5405   37.4325   36.6003 H           1 MOL       0.0850
     60 H28        65.1517   35.7944   37.1431 H           1 MOL       0.0850
     61 H29        68.2160   38.9344   41.1550 H           1 MOL       0.2095
     62 H30        63.4040   36.6875   39.9796 H           1 MOL       0.2101
     63 H31        67.4465   36.2813   37.4045 H           1 MOL       0.2348
     64 H32        66.7541   36.0113   38.8834 H           1 MOL       0.2348
@<TRIPOS>BOND
     1     1     2   1
     2     6     1   1
     3     1     7   1
     4     2     3   1
     5     2     8   1
     6     4     3   1
     7     3     9   1
     8     4     5   1
     9    10     4   1
    10     5    11   1
    11     6    10   1
    12    20     6   1
    13    12    13   1
    14    17    12   1
    15    12    18   1
    16    13    14   1
    17    13    19   1
    18    15    14   1
    19    14    20   1
    20    15    16   1
    21    21    15   1
    22    16    22   1
    23    17    21   1
    24    30    17   1
    25    24    23   1
    26    23    28   1
    27    25    24   1
    28    24    29   1
    29    25    26   1
    30    25    30   1
    31    26    27   1
    32    26    31   1
    33    27    32   1
    34    29    32   1
    35     1    33   1
    36     2    34   1
    37     3    35   1
    38     4    36   1
    39     5    37   1
    40     5    38   1
    41     6    39   1
    42     7    40   1
    43     8    41   1
    44     9    42   1
    45    11    43   1
    46    12    44   1
    47    13    45   1
    48    14    46   1
    49    15    47   1
    50    16    48   1
    51    16    49   1
    52    17    50   1
    53    18    51   1
    54    19    52   1
    55    22    53   1
    56    23    54   1
    57    23    55   1
    58    24    56   1
    59    25    57   1
    60    26    58   1
    61    27    59   1
    62    27    60   1
    63    28    61   1
    64    31    62   1
    65    32    63   1
    66    32    64   1
@<TRIPOS>SUBSTRUCTURE
     1  MOL      1

