@<TRIPOS>MOLECULE
1w3l_ligand_038
    64    66
SMALL
GAST_HUCK
****
This file was generated by PARSER (from files_GN.cpp)

@<TRIPOS>ATOM
      1 C2         57.0419   49.9379   40.3961 C.3         1 MOL       0.1341
      2 C3         55.6695   50.3103   39.7785 C.3         1 MOL       0.1141
      3 C4         55.8441   51.2212   38.5316 C.3         1 MOL       0.1119
      4 C5         56.8864   50.6118   37.5378 C.3         1 MOL       0.1130
      5 C6         57.2432   51.5839   36.3836 C.3         1 MOL       0.0730
      6 C1         57.9687   49.3401   39.3085 C.3         1 MOL       0.1884
      7 O2         56.8791   49.0144   41.4693 O.3         1 MOL      -0.3841
      8 O3         54.8565   50.9834   40.7392 O.3         1 MOL      -0.3864
      9 O4         54.5871   51.4044   37.8715 O.3         1 MOL      -0.3865
     10 O5         58.1164   50.2735   38.2259 O.3         1 MOL      -0.3405
     11 O6         58.3231   51.0568   35.6116 O.3         1 MOL      -0.3924
     12 C2         60.3540   45.4181   39.6471 C.3         1 MOL       0.1341
     13 C3         59.5623   46.6618   40.1366 C.3         1 MOL       0.1144
     14 C4         60.0719   47.9847   39.4881 C.3         1 MOL       0.1184
     15 C5         60.2720   47.8327   37.9402 C.3         1 MOL       0.1134
     16 C6         61.0048   49.0524   37.2993 C.3         1 MOL       0.0730
     17 C1         60.4398   45.4041   38.0985 C.3         1 MOL       0.1884
     18 O2         59.7724   44.2132   40.1365 O.3         1 MOL      -0.3841
     19 O3         59.6652   46.7607   41.5572 O.3         1 MOL      -0.3864
     20 O4         59.2756   49.1260   39.8811 O.3         1 MOL      -0.3401
     21 O5         61.0472   46.6399   37.6721 O.3         1 MOL      -0.3405
     22 O6         62.0993   48.6448   36.4666 O.3         1 MOL      -0.3924
     23 C6         60.9310   43.4970   33.9165 C.3         1 MOL       0.0782
     24 C5         60.8520   43.2913   35.4551 C.3         1 MOL       0.1538
     25 C4         61.7242   44.2765   36.3035 C.3         1 MOL       0.1259
     26 C3         63.2191   43.8396   36.3465 C.3         1 MOL       0.1245
     27 C2         63.3520   42.3098   36.5683 C.3         1 MOL       0.0256
     28 O6         60.7375   42.2474   33.2428 O.3         1 MOL      -0.3922
     29 O5         61.1553   41.9310   35.8275 O.3         1 MOL      -0.3215
     30 O4         61.2680   44.3050   37.6824 O.3         1 MOL      -0.3398
     31 O3         63.8674   44.2353   35.1394 O.3         1 MOL      -0.3838
     32 N1         62.4746   41.5947   35.6276 N.4         1 MOL       0.3939
     33 H1         57.5108   50.8375   40.7987 H           1 MOL       0.0671
     34 H2         55.1459   49.4001   39.4747 H           1 MOL       0.0648
     35 H3         56.2051   52.2040   38.8571 H           1 MOL       0.0647
     36 H4         56.4685   49.7010   37.0867 H           1 MOL       0.0647
     37 H5         57.5381   52.5606   36.7873 H           1 MOL       0.0584
     38 H6         56.3781   51.7231   35.7247 H           1 MOL       0.0584
     39 H7         57.5302   48.4085   38.9461 H           1 MOL       0.0938
     40 H8         56.4530   48.2212   41.0784 H           1 MOL       0.2101
     41 H9         54.6299   50.3053   41.4071 H           1 MOL       0.2100
     42 H10        54.0590   51.9558   38.4841 H           1 MOL       0.2100
     43 H11        58.4834   51.7329   34.9131 H           1 MOL       0.2095
     44 H12        61.3743   45.4737   40.0459 H           1 MOL       0.0671
     45 H13        58.5118   46.5136   39.8905 H           1 MOL       0.0648
     46 H14        61.0681   48.1676   39.9054 H           1 MOL       0.0651
     47 H15        59.3029   47.7318   37.4395 H           1 MOL       0.0647
     48 H16        61.3996   49.7276   38.0695 H           1 MOL       0.0584
     49 H17        60.3142   49.6257   36.6728 H           1 MOL       0.0584
     50 H18        59.4419   45.2824   37.6689 H           1 MOL       0.0938
     51 H19        58.8819   44.1550   39.7303 H           1 MOL       0.2101
     52 H20        58.9863   47.4164   41.8305 H           1 MOL       0.2100
     53 H21        62.7628   49.3639   36.5717 H           1 MOL       0.2095
     54 H22        61.9004   43.9027   33.6124 H           1 MOL       0.0586
     55 H23        60.1612   44.1994   33.5952 H           1 MOL       0.0586
     56 H24        59.8015   43.4446   35.7335 H           1 MOL       0.0702
     57 H25        61.6722   45.2711   35.8430 H           1 MOL       0.0654
     58 H26        63.7246   44.3664   37.1617 H           1 MOL       0.0674
     59 H27        63.0816   42.0512   37.5942 H           1 MOL       0.0850
     60 H28        64.3809   41.9935   36.3954 H           1 MOL       0.0850
     61 H29        61.5809   42.0883   32.7563 H           1 MOL       0.2095
     62 H30        64.8043   44.3752   35.3857 H           1 MOL       0.2101
     63 H31        62.5725   40.5848   35.7431 H           1 MOL       0.2348
     64 H32        62.7582   41.8323   34.6746 H           1 MOL       0.2348
@<TRIPOS>BOND
     1     1     2   1
     2     6     1   1
     3     1     7   1
     4     2     3   1
     5     2     8   1
     6     4     3   1
     7     3     9   1
     8     4     5   1
     9    10     4   1
    10     5    11   1
    11     6    10   1
    12    20     6   1
    13    12    13   1
    14    17    12   1
    15    12    18   1
    16    13    14   1
    17    13    19   1
    18    15    14   1
    19    14    20   1
    20    15    16   1
    21    21    15   1
    22    16    22   1
    23    17    21   1
    24    30    17   1
    25    24    23   1
    26    23    28   1
    27    25    24   1
    28    24    29   1
    29    25    26   1
    30    25    30   1
    31    26    27   1
    32    26    31   1
    33    27    32   1
    34    29    32   1
    35     1    33   1
    36     2    34   1
    37     3    35   1
    38     4    36   1
    39     5    37   1
    40     5    38   1
    41     6    39   1
    42     7    40   1
    43     8    41   1
    44     9    42   1
    45    11    43   1
    46    12    44   1
    47    13    45   1
    48    14    46   1
    49    15    47   1
    50    16    48   1
    51    16    49   1
    52    17    50   1
    53    18    51   1
    54    19    52   1
    55    22    53   1
    56    23    54   1
    57    23    55   1
    58    24    56   1
    59    25    57   1
    60    26    58   1
    61    27    59   1
    62    27    60   1
    63    28    61   1
    64    31    62   1
    65    32    63   1
    66    32    64   1
@<TRIPOS>SUBSTRUCTURE
     1  MOL      1

