@<TRIPOS>MOLECULE
1w3l_ligand_041
    64    66
SMALL
GAST_HUCK
****
This file was generated by PARSER (from files_GN.cpp)

@<TRIPOS>ATOM
      1 C2         61.0036   44.9624   35.1130 C.3         1 MOL       0.1341
      2 C3         61.0597   43.6191   34.3406 C.3         1 MOL       0.1141
      3 C4         61.8588   42.5509   35.1269 C.3         1 MOL       0.1119
      4 C5         61.3358   42.4375   36.5890 C.3         1 MOL       0.1130
      5 C6         62.2135   41.4913   37.4522 C.3         1 MOL       0.0730
      6 C1         60.4554   44.7292   36.5548 C.3         1 MOL       0.1884
      7 O2         60.1842   45.8446   34.3520 O.3         1 MOL      -0.3841
      8 O3         61.6404   43.8342   33.0543 O.3         1 MOL      -0.3864
      9 O4         61.7318   41.3003   34.4499 O.3         1 MOL      -0.3865
     10 O5         61.2779   43.7400   37.2201 O.3         1 MOL      -0.3405
     11 O6         63.5698   41.9243   37.5454 O.3         1 MOL      -0.3924
     12 C2         57.2246   47.7948   38.1648 C.3         1 MOL       0.1341
     13 C3         58.2750   46.6456   38.2437 C.3         1 MOL       0.1144
     14 C4         59.4667   46.9113   37.2819 C.3         1 MOL       0.1184
     15 C5         60.0489   48.3226   37.6011 C.3         1 MOL       0.1134
     16 C6         61.2535   48.6862   36.7024 C.3         1 MOL       0.0730
     17 C1         57.8790   49.2040   38.2753 C.3         1 MOL       0.1884
     18 O2         56.2363   47.6311   39.1830 O.3         1 MOL      -0.3841
     19 O3         57.6256   45.4119   37.9387 O.3         1 MOL      -0.3864
     20 O4         60.5096   45.9150   37.3850 O.3         1 MOL      -0.3401
     21 O5         59.0120   49.3001   37.3821 O.3         1 MOL      -0.3405
     22 O6         61.4422   50.1006   36.6304 O.3         1 MOL      -0.3924
     23 C6         56.3025   52.5685   39.8310 C.3         1 MOL       0.0782
     24 C5         56.2572   52.5531   38.2833 C.3         1 MOL       0.1538
     25 C4         57.2765   51.5454   37.6712 C.3         1 MOL       0.1259
     26 C3         57.3081   51.7161   36.1260 C.3         1 MOL       0.1245
     27 C2         57.4051   53.2012   35.7024 C.3         1 MOL       0.0256
     28 O6         55.3907   53.5290   40.3501 O.3         1 MOL      -0.3922
     29 O5         56.5244   53.8897   37.7963 O.3         1 MOL      -0.3215
     30 O4         56.8704   50.1879   37.9686 O.3         1 MOL      -0.3398
     31 O3         58.3690   50.9702   35.5371 O.3         1 MOL      -0.3838
     32 N1         56.3844   53.9820   36.4311 N.4         1 MOL       0.3939
     33 H1         62.0085   45.3928   35.1707 H           1 MOL       0.0671
     34 H2         60.0369   43.2540   34.1905 H           1 MOL       0.0648
     35 H3         62.9139   42.8386   35.1409 H           1 MOL       0.0647
     36 H4         60.3257   42.0134   36.5696 H           1 MOL       0.0647
     37 H5         62.2205   40.4957   37.0055 H           1 MOL       0.0584
     38 H6         61.7962   41.4077   38.4585 H           1 MOL       0.0584
     39 H7         59.4282   44.3543   36.4996 H           1 MOL       0.0938
     40 H8         60.3607   46.7394   34.7069 H           1 MOL       0.2101
     41 H9         61.8687   42.9497   32.7036 H           1 MOL       0.2100
     42 H10        62.3952   41.3433   33.7349 H           1 MOL       0.2100
     43 H11        63.7090   42.2234   38.4679 H           1 MOL       0.2095
     44 H12        56.7175   47.7278   37.1951 H           1 MOL       0.0671
     45 H13        58.6480   46.5677   39.2652 H           1 MOL       0.0648
     46 H14        59.0640   46.9521   36.2700 H           1 MOL       0.0651
     47 H15        60.3908   48.3745   38.6387 H           1 MOL       0.0647
     48 H16        61.1091   48.3193   35.6823 H           1 MOL       0.0584
     49 H17        62.1650   48.2318   37.1053 H           1 MOL       0.0584
     50 H18        58.2049   49.3758   39.3048 H           1 MOL       0.0938
     51 H19        55.5318   48.2748   38.9514 H           1 MOL       0.2101
     52 H20        57.3114   45.5120   37.0131 H           1 MOL       0.2100
     53 H21        62.3151   50.2119   36.1940 H           1 MOL       0.2095
     54 H22        57.3084   52.8118   40.1756 H           1 MOL       0.0586
     55 H23        56.0267   51.5865   40.2178 H           1 MOL       0.0586
     56 H24        55.2431   52.2664   37.9813 H           1 MOL       0.0702
     57 H25        58.2643   51.7777   38.0780 H           1 MOL       0.0654
     58 H26        56.3762   51.3190   35.7232 H           1 MOL       0.0674
     59 H27        57.2261   53.2976   34.6304 H           1 MOL       0.0850
     60 H28        58.3940   53.6037   35.9259 H           1 MOL       0.0850
     61 H29        55.4707   53.4529   41.3246 H           1 MOL       0.2095
     62 H30        59.1971   51.3101   35.9413 H           1 MOL       0.2101
     63 H31        55.4516   53.6446   36.1690 H           1 MOL       0.2348
     64 H32        56.4644   54.9661   36.1571 H           1 MOL       0.2348
@<TRIPOS>BOND
     1     1     2   1
     2     6     1   1
     3     1     7   1
     4     2     3   1
     5     2     8   1
     6     4     3   1
     7     3     9   1
     8     4     5   1
     9    10     4   1
    10     5    11   1
    11     6    10   1
    12    20     6   1
    13    12    13   1
    14    17    12   1
    15    12    18   1
    16    13    14   1
    17    13    19   1
    18    15    14   1
    19    14    20   1
    20    15    16   1
    21    21    15   1
    22    16    22   1
    23    17    21   1
    24    30    17   1
    25    24    23   1
    26    23    28   1
    27    25    24   1
    28    24    29   1
    29    25    26   1
    30    25    30   1
    31    26    27   1
    32    26    31   1
    33    27    32   1
    34    29    32   1
    35     1    33   1
    36     2    34   1
    37     3    35   1
    38     4    36   1
    39     5    37   1
    40     5    38   1
    41     6    39   1
    42     7    40   1
    43     8    41   1
    44     9    42   1
    45    11    43   1
    46    12    44   1
    47    13    45   1
    48    14    46   1
    49    15    47   1
    50    16    48   1
    51    16    49   1
    52    17    50   1
    53    18    51   1
    54    19    52   1
    55    22    53   1
    56    23    54   1
    57    23    55   1
    58    24    56   1
    59    25    57   1
    60    26    58   1
    61    27    59   1
    62    27    60   1
    63    28    61   1
    64    31    62   1
    65    32    63   1
    66    32    64   1
@<TRIPOS>SUBSTRUCTURE
     1  MOL      1

