@<TRIPOS>MOLECULE
1w3l_ligand_010
    64    66
SMALL
GAST_HUCK
****
This file was generated by PARSER (from files_GN.cpp)

@<TRIPOS>ATOM
      1 C2         60.8624   43.5502   34.9287 C.3         1 MOL       0.1341
      2 C3         61.3053   42.0970   35.2462 C.3         1 MOL       0.1141
      3 C4         62.7353   42.0644   35.8617 C.3         1 MOL       0.1119
      4 C5         62.8765   43.0913   37.0266 C.3         1 MOL       0.1130
      5 C6         64.3440   43.2925   37.4852 C.3         1 MOL       0.0730
      6 C1         61.0213   44.4289   36.1929 C.3         1 MOL       0.1884
      7 O2         59.4996   43.6112   34.5100 O.3         1 MOL      -0.3841
      8 O3         61.2414   41.2982   34.0615 O.3         1 MOL      -0.3864
      9 O4         63.0326   40.7515   36.3311 O.3         1 MOL      -0.3865
     10 O5         62.3995   44.3944   36.6219 O.3         1 MOL      -0.3405
     11 O6         65.0230   42.0583   37.6982 O.3         1 MOL      -0.3924
     12 C2         61.1733   49.2038   37.3844 C.3         1 MOL       0.1341
     13 C3         61.1841   48.0664   36.3334 C.3         1 MOL       0.1144
     14 C4         60.6215   46.7490   36.9367 C.3         1 MOL       0.1184
     15 C5         59.1888   47.0231   37.5030 C.3         1 MOL       0.1134
     16 C6         58.5424   45.7876   38.1775 C.3         1 MOL       0.0730
     17 C1         59.7828   49.3409   38.0706 C.3         1 MOL       0.1884
     18 O2         61.4970   50.4443   36.7630 O.3         1 MOL      -0.3841
     19 O3         62.5174   47.8664   35.8539 O.3         1 MOL      -0.3864
     20 O4         60.6296   45.7754   35.8681 O.3         1 MOL      -0.3401
     21 O5         59.2428   48.0691   38.5047 O.3         1 MOL      -0.3405
     22 O6         57.3230   46.1308   38.8294 O.3         1 MOL      -0.3924
     23 C6         58.9309   52.2778   41.1935 C.3         1 MOL       0.0782
     24 C5         60.1646   51.3422   41.2884 C.3         1 MOL       0.1538
     25 C4         59.9853   49.9868   40.5369 C.3         1 MOL       0.1259
     26 C3         61.1812   49.0517   40.8937 C.3         1 MOL       0.1245
     27 C2         61.4529   49.0266   42.4214 C.3         1 MOL       0.0256
     28 O6         57.9929   52.0316   42.2442 O.3         1 MOL      -0.3922
     29 O5         60.4391   51.1370   42.6888 O.3         1 MOL      -0.3215
     30 O4         59.8712   50.3147   39.1320 O.3         1 MOL      -0.3398
     31 O3         60.9476   47.7021   40.4676 O.3         1 MOL      -0.3838
     32 N1         61.5763   50.4091   42.9159 N.4         1 MOL       0.3939
     33 H1         61.4875   43.9568   34.1264 H           1 MOL       0.0671
     34 H2         60.6025   41.6660   35.9636 H           1 MOL       0.0648
     35 H3         63.4572   42.3238   35.0838 H           1 MOL       0.0647
     36 H4         62.2992   42.7427   37.8910 H           1 MOL       0.0647
     37 H5         64.3630   43.8582   38.4187 H           1 MOL       0.0584
     38 H6         64.8919   43.8666   36.7364 H           1 MOL       0.0584
     39 H7         60.3750   44.0404   36.9850 H           1 MOL       0.0938
     40 H8         59.4349   43.0351   33.7192 H           1 MOL       0.2101
     41 H9         61.9937   41.5961   33.4982 H           1 MOL       0.2100
     42 H10        63.0628   40.1873   35.5321 H           1 MOL       0.2100
     43 H11        64.8191   41.8083   38.6262 H           1 MOL       0.2095
     44 H12        61.9346   48.9913   38.1341 H           1 MOL       0.0671
     45 H13        60.5635   48.3656   35.4839 H           1 MOL       0.0648
     46 H14        61.2801   46.4584   37.7678 H           1 MOL       0.0651
     47 H15        58.5288   47.3322   36.6820 H           1 MOL       0.0647
     48 H16        59.2222   45.3662   38.9232 H           1 MOL       0.0584
     49 H17        58.3175   45.0296   37.4291 H           1 MOL       0.0584
     50 H18        59.0848   49.7628   37.3347 H           1 MOL       0.0938
     51 H19        62.3080   50.2889   36.2342 H           1 MOL       0.2101
     52 H20        63.0158   48.6758   36.0968 H           1 MOL       0.2100
     53 H21        56.6978   46.3361   38.1035 H           1 MOL       0.2095
     54 H22        58.4162   52.1606   40.2334 H           1 MOL       0.0586
     55 H23        59.2572   53.3221   41.2720 H           1 MOL       0.0586
     56 H24        61.0079   51.8783   40.8439 H           1 MOL       0.0702
     57 H25        59.0599   49.5117   40.8710 H           1 MOL       0.0654
     58 H26        62.0880   49.4208   40.3953 H           1 MOL       0.0674
     59 H27        62.3833   48.4817   42.6273 H           1 MOL       0.0850
     60 H28        60.6307   48.5196   42.9444 H           1 MOL       0.0850
     61 H29        57.2733   52.6886   42.0971 H           1 MOL       0.2095
     62 H30        61.8261   47.2539   40.5157 H           1 MOL       0.2101
     63 H31        62.3732   50.8557   42.4556 H           1 MOL       0.2348
     64 H32        61.7529   50.3747   43.9190 H           1 MOL       0.2348
@<TRIPOS>BOND
     1     1     2   1
     2     6     1   1
     3     1     7   1
     4     2     3   1
     5     2     8   1
     6     4     3   1
     7     3     9   1
     8     4     5   1
     9    10     4   1
    10     5    11   1
    11     6    10   1
    12    20     6   1
    13    12    13   1
    14    17    12   1
    15    12    18   1
    16    13    14   1
    17    13    19   1
    18    15    14   1
    19    14    20   1
    20    15    16   1
    21    21    15   1
    22    16    22   1
    23    17    21   1
    24    30    17   1
    25    24    23   1
    26    23    28   1
    27    25    24   1
    28    24    29   1
    29    25    26   1
    30    25    30   1
    31    26    27   1
    32    26    31   1
    33    27    32   1
    34    29    32   1
    35     1    33   1
    36     2    34   1
    37     3    35   1
    38     4    36   1
    39     5    37   1
    40     5    38   1
    41     6    39   1
    42     7    40   1
    43     8    41   1
    44     9    42   1
    45    11    43   1
    46    12    44   1
    47    13    45   1
    48    14    46   1
    49    15    47   1
    50    16    48   1
    51    16    49   1
    52    17    50   1
    53    18    51   1
    54    19    52   1
    55    22    53   1
    56    23    54   1
    57    23    55   1
    58    24    56   1
    59    25    57   1
    60    26    58   1
    61    27    59   1
    62    27    60   1
    63    28    61   1
    64    31    62   1
    65    32    63   1
    66    32    64   1
@<TRIPOS>SUBSTRUCTURE
     1  MOL      1

