@<TRIPOS>MOLECULE
1w3l_ligand_026
    64    66
SMALL
GAST_HUCK
****
This file was generated by PARSER (from files_GN.cpp)

@<TRIPOS>ATOM
      1 C2         61.8378   43.2527   38.1630 C.3         1 MOL       0.1341
      2 C3         62.7719   42.1127   37.6751 C.3         1 MOL       0.1141
      3 C4         62.3154   41.5583   36.2993 C.3         1 MOL       0.1119
      4 C5         62.0255   42.7085   35.2803 C.3         1 MOL       0.1130
      5 C6         61.3116   42.1950   34.0010 C.3         1 MOL       0.0730
      6 C1         61.7037   44.3460   37.0649 C.3         1 MOL       0.1884
      7 O2         62.3160   43.8057   39.3863 O.3         1 MOL      -0.3841
      8 O3         62.8028   41.0582   38.6378 O.3         1 MOL      -0.3864
      9 O4         63.3441   40.6827   35.8305 O.3         1 MOL      -0.3865
     10 O5         61.1925   43.7375   35.8612 O.3         1 MOL      -0.3405
     11 O6         60.0205   41.6540   34.2743 O.3         1 MOL      -0.3924
     12 C2         61.6511   49.0646   37.7078 C.3         1 MOL       0.1341
     13 C3         61.2372   47.7281   37.0337 C.3         1 MOL       0.1144
     14 C4         61.2188   46.5678   38.0719 C.3         1 MOL       0.1184
     15 C5         60.2977   46.9663   39.2648 C.3         1 MOL       0.1134
     16 C6         60.2916   45.9485   40.4301 C.3         1 MOL       0.0730
     17 C1         60.7603   49.3522   38.9531 C.3         1 MOL       0.1884
     18 O2         61.5359   50.1504   36.7922 O.3         1 MOL      -0.3841
     19 O3         62.1315   47.4382   35.9531 O.3         1 MOL      -0.3864
     20 O4         60.7369   45.3490   37.4578 O.3         1 MOL      -0.3401
     21 O5         60.7568   48.2032   39.8342 O.3         1 MOL      -0.3405
     22 O6         59.6794   44.7232   40.0475 O.3         1 MOL      -0.3924
     23 C6         60.6572   51.7818   43.1665 C.3         1 MOL       0.0782
     24 C5         60.7348   51.8115   41.6161 C.3         1 MOL       0.1538
     25 C4         61.6016   50.6878   40.9577 C.3         1 MOL       0.1259
     26 C3         63.1220   51.0191   41.0064 C.3         1 MOL       0.1245
     27 C2         63.3727   52.4863   40.5769 C.3         1 MOL       0.0256
     28 O6         59.7425   50.7911   43.6332 O.3         1 MOL      -0.3922
     29 O5         61.1547   53.1067   41.1339 O.3         1 MOL      -0.3215
     30 O4         61.1997   50.5857   39.5683 O.3         1 MOL      -0.3398
     31 O3         63.6299   50.8059   42.3233 O.3         1 MOL      -0.3838
     32 N1         62.4832   53.3812   41.3404 N.4         1 MOL       0.3939
     33 H1         60.8459   42.8357   38.3603 H           1 MOL       0.0671
     34 H2         63.7925   42.5038   37.5757 H           1 MOL       0.0648
     35 H3         61.4063   40.9723   36.4538 H           1 MOL       0.0647
     36 H4         62.9799   43.1537   34.9730 H           1 MOL       0.0647
     37 H5         61.8983   41.4097   33.5254 H           1 MOL       0.0584
     38 H6         61.2138   43.0179   33.2902 H           1 MOL       0.0584
     39 H7         62.6873   44.7879   36.8500 H           1 MOL       0.0938
     40 H8         63.2591   43.5498   39.4513 H           1 MOL       0.2101
     41 H9         63.4231   41.3736   39.3272 H           1 MOL       0.2100
     42 H10        63.5220   40.9314   34.9005 H           1 MOL       0.2100
     43 H11        59.6238   42.2295   34.9625 H           1 MOL       0.2095
     44 H12        62.6924   48.9965   38.0298 H           1 MOL       0.0671
     45 H13        60.2339   47.8416   36.6113 H           1 MOL       0.0648
     46 H14        62.2312   46.4369   38.4679 H           1 MOL       0.0651
     47 H15        59.2673   47.0851   38.9171 H           1 MOL       0.0647
     48 H16        59.7259   46.3556   41.2730 H           1 MOL       0.0584
     49 H17        61.3148   45.7565   40.7651 H           1 MOL       0.0584
     50 H18        59.7344   49.5353   38.6082 H           1 MOL       0.0938
     51 H19        62.2890   50.0531   36.1710 H           1 MOL       0.2101
     52 H20        61.6772   46.7505   35.4248 H           1 MOL       0.2100
     53 H21        59.7532   44.1458   40.8383 H           1 MOL       0.2095
     54 H22        60.3028   52.7486   43.5257 H           1 MOL       0.0586
     55 H23        61.6308   51.5974   43.6192 H           1 MOL       0.0586
     56 H24        59.7078   51.6874   41.2617 H           1 MOL       0.0702
     57 H25        61.4353   49.7621   41.5075 H           1 MOL       0.0654
     58 H26        63.6647   50.3492   40.3322 H           1 MOL       0.0674
     59 H27        63.1778   52.6033   39.5091 H           1 MOL       0.0850
     60 H28        64.4142   52.7636   40.7644 H           1 MOL       0.0850
     61 H29        60.1524   49.9289   43.4123 H           1 MOL       0.2095
     62 H30        64.4187   51.3833   42.4029 H           1 MOL       0.2101
     63 H31        62.6603   54.3410   41.0442 H           1 MOL       0.2348
     64 H32        62.6967   53.3040   42.3349 H           1 MOL       0.2348
@<TRIPOS>BOND
     1     1     2   1
     2     6     1   1
     3     1     7   1
     4     2     3   1
     5     2     8   1
     6     4     3   1
     7     3     9   1
     8     4     5   1
     9    10     4   1
    10     5    11   1
    11     6    10   1
    12    20     6   1
    13    12    13   1
    14    17    12   1
    15    12    18   1
    16    13    14   1
    17    13    19   1
    18    15    14   1
    19    14    20   1
    20    15    16   1
    21    21    15   1
    22    16    22   1
    23    17    21   1
    24    30    17   1
    25    24    23   1
    26    23    28   1
    27    25    24   1
    28    24    29   1
    29    25    26   1
    30    25    30   1
    31    26    27   1
    32    26    31   1
    33    27    32   1
    34    29    32   1
    35     1    33   1
    36     2    34   1
    37     3    35   1
    38     4    36   1
    39     5    37   1
    40     5    38   1
    41     6    39   1
    42     7    40   1
    43     8    41   1
    44     9    42   1
    45    11    43   1
    46    12    44   1
    47    13    45   1
    48    14    46   1
    49    15    47   1
    50    16    48   1
    51    16    49   1
    52    17    50   1
    53    18    51   1
    54    19    52   1
    55    22    53   1
    56    23    54   1
    57    23    55   1
    58    24    56   1
    59    25    57   1
    60    26    58   1
    61    27    59   1
    62    27    60   1
    63    28    61   1
    64    31    62   1
    65    32    63   1
    66    32    64   1
@<TRIPOS>SUBSTRUCTURE
     1  MOL      1

