@<TRIPOS>MOLECULE
1w3l_ligand_045
    64    66
SMALL
GAST_HUCK
****
This file was generated by PARSER (from files_GN.cpp)

@<TRIPOS>ATOM
      1 C2         58.1450   49.6674   42.2792 C.3         1 MOL       0.1341
      2 C3         58.3542   51.1918   42.0040 C.3         1 MOL       0.1141
      3 C4         59.7951   51.5101   41.4972 C.3         1 MOL       0.1119
      4 C5         60.2332   50.5296   40.3685 C.3         1 MOL       0.1130
      5 C6         61.7371   50.6041   40.0055 C.3         1 MOL       0.0730
      6 C1         58.5935   48.8528   41.0348 C.3         1 MOL       0.1884
      7 O2         56.7666   49.4128   42.5641 O.3         1 MOL      -0.3841
      8 O3         58.0847   51.9594   43.1899 O.3         1 MOL      -0.3864
      9 O4         59.8353   52.8435   40.9977 O.3         1 MOL      -0.3865
     10 O5         59.9772   49.1671   40.7713 O.3         1 MOL      -0.3405
     11 O6         62.2558   51.9309   40.0279 O.3         1 MOL      -0.3924
     12 C2         58.5078   45.7390   37.7640 C.3         1 MOL       0.1341
     13 C3         57.9890   46.6632   38.9097 C.3         1 MOL       0.1144
     14 C4         58.7522   46.4611   40.2634 C.3         1 MOL       0.1184
     15 C5         60.2982   46.2397   40.0653 C.3         1 MOL       0.1134
     16 C6         60.9947   45.6378   41.3194 C.3         1 MOL       0.0730
     17 C1         60.0578   45.8502   37.6857 C.3         1 MOL       0.1884
     18 O2         57.8982   46.1344   36.5364 O.3         1 MOL      -0.3841
     19 O3         56.5926   46.4235   39.0982 O.3         1 MOL      -0.3864
     20 O4         58.4241   47.4450   41.2864 O.3         1 MOL      -0.3401
     21 O5         60.5823   45.3761   38.9385 O.3         1 MOL      -0.3405
     22 O6         61.5514   46.6614   42.1508 O.3         1 MOL      -0.3924
     23 C6         63.0132   43.7563   38.0764 C.3         1 MOL       0.0782
     24 C5         62.4414   43.4499   36.6755 C.3         1 MOL       0.1538
     25 C4         60.9399   43.8147   36.4560 C.3         1 MOL       0.1259
     26 C3         60.5784   43.3874   35.0025 C.3         1 MOL       0.1245
     27 C2         60.9279   41.8985   34.7645 C.3         1 MOL       0.0256
     28 O6         62.2407   43.1549   39.1097 O.3         1 MOL      -0.3922
     29 O5         62.6229   42.0380   36.4334 O.3         1 MOL      -0.3215
     30 O4         60.6965   45.2325   36.5440 O.3         1 MOL      -0.3398
     31 O3         59.2088   43.6290   34.7017 O.3         1 MOL      -0.3838
     32 N1         62.3345   41.6604   35.1453 N.4         1 MOL       0.3939
     33 H1         58.7418   49.3731   43.1513 H           1 MOL       0.0671
     34 H2         57.6412   51.5121   41.2309 H           1 MOL       0.0648
     35 H3         60.4978   51.4186   42.3340 H           1 MOL       0.0647
     36 H4         59.6668   50.7453   39.4604 H           1 MOL       0.0647
     37 H5         61.8820   50.2098   38.9949 H           1 MOL       0.0584
     38 H6         62.3300   49.9859   40.6954 H           1 MOL       0.0584
     39 H7         57.9711   49.1660   40.2003 H           1 MOL       0.0938
     40 H8         56.7491   48.4844   42.8926 H           1 MOL       0.2101
     41 H9         57.1191   51.8603   43.3413 H           1 MOL       0.2100
     42 H10        59.7047   53.4186   41.7841 H           1 MOL       0.2100
     43 H11        62.5753   52.0672   40.9450 H           1 MOL       0.2095
     44 H12        58.2287   44.7076   37.9828 H           1 MOL       0.0671
     45 H13        58.1031   47.6893   38.5587 H           1 MOL       0.0648
     46 H14        58.3723   45.5199   40.6606 H           1 MOL       0.0651
     47 H15        60.7848   47.1913   39.8349 H           1 MOL       0.0647
     48 H16        61.8117   44.9819   41.0165 H           1 MOL       0.0584
     49 H17        60.3009   45.0410   41.9197 H           1 MOL       0.0584
     50 H18        60.3098   46.9073   37.5554 H           1 MOL       0.0938
     51 H19        57.1189   45.5532   36.4500 H           1 MOL       0.2101
     52 H20        56.2779   47.1627   39.6576 H           1 MOL       0.2100
     53 H21        61.8880   46.1851   42.9431 H           1 MOL       0.2095
     54 H22        63.0665   44.8321   38.2401 H           1 MOL       0.0586
     55 H23        64.0314   43.3617   38.1322 H           1 MOL       0.0586
     56 H24        63.0558   44.0077   35.9601 H           1 MOL       0.0702
     57 H25        60.3158   43.2592   37.1597 H           1 MOL       0.0654
     58 H26        61.1635   43.9911   34.3003 H           1 MOL       0.0674
     59 H27        60.8081   41.6522   33.7063 H           1 MOL       0.0850
     60 H28        60.2709   41.2552   35.3536 H           1 MOL       0.0850
     61 H29        62.8979   42.9609   39.8105 H           1 MOL       0.2095
     62 H30        59.0215   43.0984   33.8991 H           1 MOL       0.2101
     63 H31        62.9367   42.1693   34.4982 H           1 MOL       0.2348
     64 H32        62.5334   40.6610   35.0498 H           1 MOL       0.2348
@<TRIPOS>BOND
     1     1     2   1
     2     6     1   1
     3     1     7   1
     4     2     3   1
     5     2     8   1
     6     4     3   1
     7     3     9   1
     8     4     5   1
     9    10     4   1
    10     5    11   1
    11     6    10   1
    12    20     6   1
    13    12    13   1
    14    17    12   1
    15    12    18   1
    16    13    14   1
    17    13    19   1
    18    15    14   1
    19    14    20   1
    20    15    16   1
    21    21    15   1
    22    16    22   1
    23    17    21   1
    24    30    17   1
    25    24    23   1
    26    23    28   1
    27    25    24   1
    28    24    29   1
    29    25    26   1
    30    25    30   1
    31    26    27   1
    32    26    31   1
    33    27    32   1
    34    29    32   1
    35     1    33   1
    36     2    34   1
    37     3    35   1
    38     4    36   1
    39     5    37   1
    40     5    38   1
    41     6    39   1
    42     7    40   1
    43     8    41   1
    44     9    42   1
    45    11    43   1
    46    12    44   1
    47    13    45   1
    48    14    46   1
    49    15    47   1
    50    16    48   1
    51    16    49   1
    52    17    50   1
    53    18    51   1
    54    19    52   1
    55    22    53   1
    56    23    54   1
    57    23    55   1
    58    24    56   1
    59    25    57   1
    60    26    58   1
    61    27    59   1
    62    27    60   1
    63    28    61   1
    64    31    62   1
    65    32    63   1
    66    32    64   1
@<TRIPOS>SUBSTRUCTURE
     1  MOL      1

