@<TRIPOS>MOLECULE
1w3l_ligand_054
    64    66
SMALL
GAST_HUCK
****
This file was generated by PARSER (from files_GN.cpp)

@<TRIPOS>ATOM
      1 C2         61.9027   51.3999   40.6096 C.3         1 MOL       0.1341
      2 C3         61.9261   52.4692   41.7296 C.3         1 MOL       0.1141
      3 C4         60.6576   53.3708   41.6854 C.3         1 MOL       0.1119
      4 C5         59.3662   52.4952   41.6359 C.3         1 MOL       0.1130
      5 C6         58.0876   53.3358   41.3381 C.3         1 MOL       0.0730
      6 C1         60.5680   50.6072   40.6797 C.3         1 MOL       0.1884
      7 O2         63.0460   50.5655   40.7540 O.3         1 MOL      -0.3841
      8 O3         63.1007   53.2741   41.6030 O.3         1 MOL      -0.3864
      9 O4         60.6447   54.2392   42.8216 O.3         1 MOL      -0.3865
     10 O5         59.4582   51.5170   40.5792 O.3         1 MOL      -0.3405
     11 O6         57.7612   54.2350   42.4063 O.3         1 MOL      -0.3924
     12 C2         60.7326   45.9057   40.2344 C.3         1 MOL       0.1341
     13 C3         60.2047   47.3519   40.4401 C.3         1 MOL       0.1144
     14 C4         60.9733   48.3875   39.5535 C.3         1 MOL       0.1184
     15 C5         60.9836   47.8799   38.0686 C.3         1 MOL       0.1134
     16 C6         61.7359   48.8474   37.1053 C.3         1 MOL       0.0730
     17 C1         60.8496   45.5545   38.7250 C.3         1 MOL       0.1884
     18 O2         59.8575   44.9925   40.8963 O.3         1 MOL      -0.3841
     19 O3         60.3098   47.6614   41.8295 O.3         1 MOL      -0.3864
     20 O4         60.3715   49.7109   39.5658 O.3         1 MOL      -0.3401
     21 O5         61.5895   46.5690   38.0068 O.3         1 MOL      -0.3405
     22 O6         62.5029   48.1769   36.0925 O.3         1 MOL      -0.3924
     23 C6         60.1096   42.3800   35.5966 C.3         1 MOL       0.0782
     24 C5         60.3201   42.8266   37.0721 C.3         1 MOL       0.1538
     25 C4         61.6327   43.6303   37.3590 C.3         1 MOL       0.1259
     26 C3         62.8654   42.6815   37.4703 C.3         1 MOL       0.1245
     27 C2         62.5323   41.4734   38.3946 C.3         1 MOL       0.0256
     28 O6         59.8610   43.5045   34.7530 O.3         1 MOL      -0.3922
     29 O5         60.2037   41.7277   38.0018 O.3         1 MOL      -0.3215
     30 O4         61.5447   44.2953   38.6400 O.3         1 MOL      -0.3398
     31 O3         63.2857   42.1813   36.2044 O.3         1 MOL      -0.3838
     32 N1         61.2589   40.8532   37.9769 N.4         1 MOL       0.3939
     33 H1         61.9776   51.8979   39.6445 H           1 MOL       0.0671
     34 H2         61.9607   51.9716   42.7052 H           1 MOL       0.0648
     35 H3         60.6959   53.9951   40.7874 H           1 MOL       0.0647
     36 H4         59.2134   52.0001   42.6020 H           1 MOL       0.0647
     37 H5         57.2290   52.6608   41.1999 H           1 MOL       0.0584
     38 H6         58.2149   53.9157   40.4047 H           1 MOL       0.0584
     39 H7         60.4968   50.0718   41.6307 H           1 MOL       0.0938
     40 H8         63.2531   50.2908   39.8382 H           1 MOL       0.2101
     41 H9         63.1295   53.8386   42.4052 H           1 MOL       0.2100
     42 H10        60.6114   53.6453   43.6003 H           1 MOL       0.2100
     43 H11        58.5236   54.8524   42.4494 H           1 MOL       0.2095
     44 H12        61.7226   45.8253   40.6922 H           1 MOL       0.0671
     45 H13        59.1399   47.3887   40.1719 H           1 MOL       0.0648
     46 H14        62.0217   48.4408   39.8892 H           1 MOL       0.0651
     47 H15        59.9459   47.8162   37.7100 H           1 MOL       0.0647
     48 H16        62.4240   49.5014   37.6592 H           1 MOL       0.0584
     49 H17        61.0043   49.4958   36.5945 H           1 MOL       0.0584
     50 H18        59.8333   45.4649   38.3175 H           1 MOL       0.0938
     51 H19        60.2962   44.1218   40.8148 H           1 MOL       0.2101
     52 H20        61.2713   47.6340   42.0327 H           1 MOL       0.2100
     53 H21        62.9350   48.9123   35.6058 H           1 MOL       0.2095
     54 H22        59.2361   41.7286   35.5421 H           1 MOL       0.0586
     55 H23        60.9703   41.8197   35.2265 H           1 MOL       0.0586
     56 H24        59.4767   43.4705   37.3020 H           1 MOL       0.0702
     57 H25        61.8307   44.3557   36.5629 H           1 MOL       0.0654
     58 H26        63.7178   43.2198   37.9059 H           1 MOL       0.0674
     59 H27        62.4429   41.8114   39.4334 H           1 MOL       0.0850
     60 H28        63.3314   40.7245   38.3468 H           1 MOL       0.0850
     61 H29        59.7105   43.1206   33.8623 H           1 MOL       0.2095
     62 H30        63.6377   42.9639   35.7261 H           1 MOL       0.2101
     63 H31        61.0486   40.0907   38.6237 H           1 MOL       0.2348
     64 H32        61.3553   40.4635   37.0421 H           1 MOL       0.2348
@<TRIPOS>BOND
     1     1     2   1
     2     6     1   1
     3     1     7   1
     4     2     3   1
     5     2     8   1
     6     4     3   1
     7     3     9   1
     8     4     5   1
     9    10     4   1
    10     5    11   1
    11     6    10   1
    12    20     6   1
    13    12    13   1
    14    17    12   1
    15    12    18   1
    16    13    14   1
    17    13    19   1
    18    15    14   1
    19    14    20   1
    20    15    16   1
    21    21    15   1
    22    16    22   1
    23    17    21   1
    24    30    17   1
    25    24    23   1
    26    23    28   1
    27    25    24   1
    28    24    29   1
    29    25    26   1
    30    25    30   1
    31    26    27   1
    32    26    31   1
    33    27    32   1
    34    29    32   1
    35     1    33   1
    36     2    34   1
    37     3    35   1
    38     4    36   1
    39     5    37   1
    40     5    38   1
    41     6    39   1
    42     7    40   1
    43     8    41   1
    44     9    42   1
    45    11    43   1
    46    12    44   1
    47    13    45   1
    48    14    46   1
    49    15    47   1
    50    16    48   1
    51    16    49   1
    52    17    50   1
    53    18    51   1
    54    19    52   1
    55    22    53   1
    56    23    54   1
    57    23    55   1
    58    24    56   1
    59    25    57   1
    60    26    58   1
    61    27    59   1
    62    27    60   1
    63    28    61   1
    64    31    62   1
    65    32    63   1
    66    32    64   1
@<TRIPOS>SUBSTRUCTURE
     1  MOL      1

