@<TRIPOS>MOLECULE
1w3l_ligand_030
    64    66
SMALL
GAST_HUCK
****
This file was generated by PARSER (from files_GN.cpp)

@<TRIPOS>ATOM
      1 C2         61.4143   50.5981   40.1822 C.3         1 MOL       0.1341
      2 C3         60.9199   51.0265   41.5884 C.3         1 MOL       0.1141
      3 C4         59.6630   51.9297   41.4817 C.3         1 MOL       0.1119
      4 C5         58.5711   51.2345   40.6105 C.3         1 MOL       0.1130
      5 C6         57.3732   52.1613   40.2852 C.3         1 MOL       0.0730
      6 C1         60.2536   49.9118   39.4034 C.3         1 MOL       0.1884
      7 O2         62.5265   49.7206   40.3238 O.3         1 MOL      -0.3841
      8 O3         61.9610   51.6922   42.2995 O.3         1 MOL      -0.3864
      9 O4         59.1834   52.2130   42.7943 O.3         1 MOL      -0.3865
     10 O5         59.1251   50.8076   39.3471 O.3         1 MOL      -0.3405
     11 O6         56.7918   52.6963   41.4712 O.3         1 MOL      -0.3924
     12 C2         61.9565   46.0888   37.5270 C.3         1 MOL       0.1341
     13 C3         61.8585   47.5452   38.0579 C.3         1 MOL       0.1144
     14 C4         60.6630   48.3289   37.4614 C.3         1 MOL       0.1184
     15 C5         59.3525   47.4698   37.5195 C.3         1 MOL       0.1134
     16 C6         58.1569   48.1270   36.7777 C.3         1 MOL       0.0730
     17 C1         60.5877   45.3553   37.6191 C.3         1 MOL       0.1884
     18 O2         62.9551   45.4292   38.3025 O.3         1 MOL      -0.3841
     19 O3         63.0875   48.1968   37.7312 O.3         1 MOL      -0.3864
     20 O4         60.5815   49.6686   38.0177 O.3         1 MOL      -0.3401
     21 O5         59.5789   46.1519   36.9590 O.3         1 MOL      -0.3405
     22 O6         58.5416   48.7500   35.5559 O.3         1 MOL      -0.3924
     23 C6         61.1525   42.6871   34.4698 C.3         1 MOL       0.0782
     24 C5         61.3423   42.0540   35.8704 C.3         1 MOL       0.1538
     25 C4         61.5902   43.1183   36.9783 C.3         1 MOL       0.1259
     26 C3         61.7656   42.3755   38.3388 C.3         1 MOL       0.1245
     27 C2         62.8758   41.2950   38.2033 C.3         1 MOL       0.0256
     28 O6         60.7636   41.6978   33.5259 O.3         1 MOL      -0.3922
     29 O5         62.4832   41.1680   35.8492 O.3         1 MOL      -0.3215
     30 O4         60.5119   44.0810   36.9450 O.3         1 MOL      -0.3398
     31 O3         62.0668   43.2558   39.4159 O.3         1 MOL      -0.3838
     32 N1         62.6202   40.4529   37.0161 N.4         1 MOL       0.3939
     33 H1         61.7573   51.4835   39.6377 H           1 MOL       0.0671
     34 H2         60.6627   50.1337   42.1637 H           1 MOL       0.0648
     35 H3         59.9560   52.8756   41.0157 H           1 MOL       0.0647
     36 H4         58.1823   50.3556   41.1378 H           1 MOL       0.0647
     37 H5         56.5997   51.5946   39.7605 H           1 MOL       0.0584
     38 H6         57.6924   52.9822   39.6394 H           1 MOL       0.0584
     39 H7         59.9688   48.9942   39.9311 H           1 MOL       0.0938
     40 H8         63.1267   49.9872   39.6022 H           1 MOL       0.2101
     41 H9         62.1730   52.4891   41.7713 H           1 MOL       0.2100
     42 H10        58.4947   52.9009   42.6769 H           1 MOL       0.2100
     43 H11        56.0622   53.2745   41.1638 H           1 MOL       0.2095
     44 H12        62.2669   46.0966   36.4787 H           1 MOL       0.0671
     45 H13        61.7449   47.5176   39.1454 H           1 MOL       0.0648
     46 H14        60.8986   48.4735   36.4049 H           1 MOL       0.0651
     47 H15        59.0370   47.3271   38.5585 H           1 MOL       0.0647
     48 H16        57.7023   48.8887   37.4149 H           1 MOL       0.0584
     49 H17        57.3966   47.3728   36.5602 H           1 MOL       0.0584
     50 H18        60.3089   45.2112   38.6678 H           1 MOL       0.0938
     51 H19        63.7943   45.5716   37.8143 H           1 MOL       0.2101
     52 H20        62.9147   49.1557   37.8055 H           1 MOL       0.2100
     53 H21        58.6111   48.0232   34.9025 H           1 MOL       0.2095
     54 H22        62.0750   43.1697   34.1304 H           1 MOL       0.0586
     55 H23        60.3642   43.4414   34.5094 H           1 MOL       0.0586
     56 H24        60.4325   41.4835   36.0969 H           1 MOL       0.0702
     57 H25        62.5320   43.6078   36.7137 H           1 MOL       0.0654
     58 H26        60.8221   41.8810   38.5939 H           1 MOL       0.0674
     59 H27        62.9055   40.6667   39.0965 H           1 MOL       0.0850
     60 H28        63.8560   41.7699   38.0853 H           1 MOL       0.0850
     61 H29        61.5145   41.6318   32.8990 H           1 MOL       0.2095
     62 H30        63.0430   43.2489   39.5113 H           1 MOL       0.2101
     63 H31        61.7663   39.9123   37.1534 H           1 MOL       0.2348
     64 H32        63.3998   39.7986   36.9076 H           1 MOL       0.2348
@<TRIPOS>BOND
     1     1     2   1
     2     6     1   1
     3     1     7   1
     4     2     3   1
     5     2     8   1
     6     4     3   1
     7     3     9   1
     8     4     5   1
     9    10     4   1
    10     5    11   1
    11     6    10   1
    12    20     6   1
    13    12    13   1
    14    17    12   1
    15    12    18   1
    16    13    14   1
    17    13    19   1
    18    15    14   1
    19    14    20   1
    20    15    16   1
    21    21    15   1
    22    16    22   1
    23    17    21   1
    24    30    17   1
    25    24    23   1
    26    23    28   1
    27    25    24   1
    28    24    29   1
    29    25    26   1
    30    25    30   1
    31    26    27   1
    32    26    31   1
    33    27    32   1
    34    29    32   1
    35     1    33   1
    36     2    34   1
    37     3    35   1
    38     4    36   1
    39     5    37   1
    40     5    38   1
    41     6    39   1
    42     7    40   1
    43     8    41   1
    44     9    42   1
    45    11    43   1
    46    12    44   1
    47    13    45   1
    48    14    46   1
    49    15    47   1
    50    16    48   1
    51    16    49   1
    52    17    50   1
    53    18    51   1
    54    19    52   1
    55    22    53   1
    56    23    54   1
    57    23    55   1
    58    24    56   1
    59    25    57   1
    60    26    58   1
    61    27    59   1
    62    27    60   1
    63    28    61   1
    64    31    62   1
    65    32    63   1
    66    32    64   1
@<TRIPOS>SUBSTRUCTURE
     1  MOL      1

