@<TRIPOS>MOLECULE
1w3l_ligand_023
    64    66
SMALL
GAST_HUCK
****
This file was generated by PARSER (from files_GN.cpp)

@<TRIPOS>ATOM
      1 C2         62.8666   39.7265   38.7403 C.3         1 MOL       0.1341
      2 C3         62.2541   39.4254   40.1379 C.3         1 MOL       0.1141
      3 C4         62.2355   40.6971   41.0361 C.3         1 MOL       0.1119
      4 C5         61.5631   41.8699   40.2657 C.3         1 MOL       0.1130
      5 C6         61.5635   43.2496   41.0118 C.3         1 MOL       0.0730
      6 C1         62.2078   40.9630   38.0821 C.3         1 MOL       0.1884
      7 O2         62.7083   38.5652   37.9219 O.3         1 MOL      -0.3841
      8 O3         62.9792   38.4018   40.8039 O.3         1 MOL      -0.3864
      9 O4         61.5468   40.4512   42.2615 O.3         1 MOL      -0.3865
     10 O5         62.2250   42.0630   39.0010 O.3         1 MOL      -0.3405
     11 O6         62.1533   43.2167   42.3273 O.3         1 MOL      -0.3924
     12 C2         61.1134   43.9735   34.6936 C.3         1 MOL       0.1341
     13 C3         61.3877   42.5677   35.3120 C.3         1 MOL       0.1144
     14 C4         62.7362   42.5007   36.1071 C.3         1 MOL       0.1184
     15 C5         63.0169   43.8102   36.9351 C.3         1 MOL       0.1134
     16 C6         64.4871   43.9327   37.4217 C.3         1 MOL       0.0730
     17 C1         61.3131   45.0487   35.7824 C.3         1 MOL       0.1884
     18 O2         59.7836   44.0313   34.1996 O.3         1 MOL      -0.3841
     19 O3         61.3729   41.5663   34.2880 O.3         1 MOL      -0.3864
     20 O4         62.9398   41.2809   36.8712 O.3         1 MOL      -0.3401
     21 O5         62.6923   44.9979   36.1846 O.3         1 MOL      -0.3405
     22 O6         65.2222   44.9118   36.6830 O.3         1 MOL      -0.3924
     23 C6         61.7078   48.4112   38.6984 C.3         1 MOL       0.0782
     24 C5         61.1583   47.2376   37.8248 C.3         1 MOL       0.1538
     25 C4         60.9378   47.4952   36.2774 C.3         1 MOL       0.1259
     26 C3         59.5429   48.1483   36.0130 C.3         1 MOL       0.1245
     27 C2         58.4340   47.4227   36.8165 C.3         1 MOL       0.0256
     28 O6         61.3919   49.7174   38.2340 O.3         1 MOL      -0.3922
     29 O5         59.9851   46.6369   38.4142 O.3         1 MOL      -0.3215
     30 O4         61.0126   46.3737   35.3435 O.3         1 MOL      -0.3398
     31 O3         59.5088   49.5365   36.3498 O.3         1 MOL      -0.3838
     32 N1         58.8317   47.3524   38.2369 N.4         1 MOL       0.3939
     33 H1         63.9401   39.9106   38.8591 H           1 MOL       0.0671
     34 H2         61.2282   39.0870   40.0158 H           1 MOL       0.0648
     35 H3         63.2631   40.9756   41.2756 H           1 MOL       0.0647
     36 H4         60.5124   41.6270   40.0702 H           1 MOL       0.0647
     37 H5         60.5248   43.6293   41.1127 H           1 MOL       0.0584
     38 H6         62.1218   43.9997   40.4211 H           1 MOL       0.0584
     39 H7         61.1736   40.7106   37.8220 H           1 MOL       0.0938
     40 H8         62.8980   38.8576   37.0041 H           1 MOL       0.2101
     41 H9         62.7470   37.5682   40.3408 H           1 MOL       0.2100
     42 H10        60.6560   40.1310   42.0047 H           1 MOL       0.2100
     43 H11        62.0654   44.1432   42.6504 H           1 MOL       0.2095
     44 H12        61.8035   44.1494   33.8619 H           1 MOL       0.0671
     45 H13        60.5715   42.3412   36.0010 H           1 MOL       0.0648
     46 H14        63.5272   42.4867   35.3465 H           1 MOL       0.0651
     47 H15        62.3888   43.8436   37.8228 H           1 MOL       0.0647
     48 H16        65.0032   42.9665   37.3604 H           1 MOL       0.0584
     49 H17        64.4908   44.2445   38.4666 H           1 MOL       0.0584
     50 H18        60.6318   44.8131   36.6076 H           1 MOL       0.0938
     51 H19        59.7357   43.3934   33.4549 H           1 MOL       0.2101
     52 H20        62.1389   41.7594   33.7013 H           1 MOL       0.2100
     53 H21        65.1052   44.6590   35.7443 H           1 MOL       0.2095
     54 H22        62.7981   48.3482   38.7608 H           1 MOL       0.0586
     55 H23        61.3201   48.3112   39.7150 H           1 MOL       0.0586
     56 H24        61.9305   46.4784   37.9384 H           1 MOL       0.0702
     57 H25        61.7134   48.1945   35.9440 H           1 MOL       0.0654
     58 H26        59.2925   48.0896   34.9521 H           1 MOL       0.0674
     59 H27        58.2850   46.4097   36.4321 H           1 MOL       0.0850
     60 H28        57.4876   47.9593   36.7388 H           1 MOL       0.0850
     61 H29        62.1984   50.0089   37.7692 H           1 MOL       0.2095
     62 H30        60.2938   49.9237   35.9175 H           1 MOL       0.2101
     63 H31        58.0875   46.8902   38.7610 H           1 MOL       0.2348
     64 H32        58.9554   48.2943   38.6030 H           1 MOL       0.2348
@<TRIPOS>BOND
     1     1     2   1
     2     6     1   1
     3     1     7   1
     4     2     3   1
     5     2     8   1
     6     4     3   1
     7     3     9   1
     8     4     5   1
     9    10     4   1
    10     5    11   1
    11     6    10   1
    12    20     6   1
    13    12    13   1
    14    17    12   1
    15    12    18   1
    16    13    14   1
    17    13    19   1
    18    15    14   1
    19    14    20   1
    20    15    16   1
    21    21    15   1
    22    16    22   1
    23    17    21   1
    24    30    17   1
    25    24    23   1
    26    23    28   1
    27    25    24   1
    28    24    29   1
    29    25    26   1
    30    25    30   1
    31    26    27   1
    32    26    31   1
    33    27    32   1
    34    29    32   1
    35     1    33   1
    36     2    34   1
    37     3    35   1
    38     4    36   1
    39     5    37   1
    40     5    38   1
    41     6    39   1
    42     7    40   1
    43     8    41   1
    44     9    42   1
    45    11    43   1
    46    12    44   1
    47    13    45   1
    48    14    46   1
    49    15    47   1
    50    16    48   1
    51    16    49   1
    52    17    50   1
    53    18    51   1
    54    19    52   1
    55    22    53   1
    56    23    54   1
    57    23    55   1
    58    24    56   1
    59    25    57   1
    60    26    58   1
    61    27    59   1
    62    27    60   1
    63    28    61   1
    64    31    62   1
    65    32    63   1
    66    32    64   1
@<TRIPOS>SUBSTRUCTURE
     1  MOL      1

