@<TRIPOS>MOLECULE
1w3l_ligand_011
    64    66
SMALL
GAST_HUCK
****
This file was generated by PARSER (from files_GN.cpp)

@<TRIPOS>ATOM
      1 C2         60.8193   43.6909   34.9070 C.3         1 MOL       0.1341
      2 C3         61.2535   42.2333   35.2232 C.3         1 MOL       0.1141
      3 C4         62.6850   42.1979   35.8427 C.3         1 MOL       0.1119
      4 C5         62.8347   43.2233   37.0115 C.3         1 MOL       0.1130
      5 C6         64.3014   43.4595   37.4504 C.3         1 MOL       0.0730
      6 C1         60.9692   44.5564   36.1831 C.3         1 MOL       0.1884
      7 O2         59.4624   43.7472   34.4761 O.3         1 MOL      -0.3841
      8 O3         61.1740   41.4239   34.0464 O.3         1 MOL      -0.3864
      9 O4         62.9719   40.8838   36.3165 O.3         1 MOL      -0.3865
     10 O5         62.3381   44.5231   36.6266 O.3         1 MOL      -0.3405
     11 O6         65.0299   42.2486   37.6310 O.3         1 MOL      -0.3924
     12 C2         58.2584   47.2202   38.7001 C.3         1 MOL       0.1341
     13 C3         58.7873   46.2593   37.6028 C.3         1 MOL       0.1144
     14 C4         60.0906   46.7954   36.9266 C.3         1 MOL       0.1184
     15 C5         61.1561   47.2115   37.9934 C.3         1 MOL       0.1134
     16 C6         62.3244   48.0532   37.4083 C.3         1 MOL       0.0730
     17 C1         59.4016   47.5651   39.6995 C.3         1 MOL       0.1884
     18 O2         57.1689   46.5979   39.3841 O.3         1 MOL      -0.3841
     19 O3         57.7748   46.0370   36.6193 O.3         1 MOL      -0.3864
     20 O4         60.5879   45.9169   35.8882 O.3         1 MOL      -0.3401
     21 O5         60.5668   48.0721   39.0041 O.3         1 MOL      -0.3405
     22 O6         63.0936   47.3605   36.4342 O.3         1 MOL      -0.3924
     23 C6         61.3335   50.5743   40.2504 C.3         1 MOL       0.0782
     24 C5         59.9650   50.8336   40.9329 C.3         1 MOL       0.1538
     25 C4         58.8269   49.9103   40.3863 C.3         1 MOL       0.1259
     26 C3         57.4612   50.3542   40.9849 C.3         1 MOL       0.1245
     27 C2         57.2571   51.8793   40.8239 C.3         1 MOL       0.0256
     28 O6         62.1548   51.7443   40.2309 O.3         1 MOL      -0.3922
     29 O5         59.6009   52.2109   40.6910 O.3         1 MOL      -0.3215
     30 O4         59.0293   48.5178   40.7247 O.3         1 MOL      -0.3398
     31 O3         56.3762   49.6618   40.3703 O.3         1 MOL      -0.3838
     32 N1         58.4473   52.5889   41.3382 N.4         1 MOL       0.3939
     33 H1         61.4481   44.0998   34.1107 H           1 MOL       0.0671
     34 H2         60.5439   41.8117   35.9461 H           1 MOL       0.0648
     35 H3         63.4107   42.4422   35.0673 H           1 MOL       0.0647
     36 H4         62.2722   42.8663   37.8814 H           1 MOL       0.0647
     37 H5         64.3136   44.0204   38.3909 H           1 MOL       0.0584
     38 H6         64.8181   44.0592   36.6980 H           1 MOL       0.0584
     39 H7         60.3179   44.1278   36.9525 H           1 MOL       0.0938
     40 H8         59.4050   43.1417   33.7037 H           1 MOL       0.2101
     41 H9         61.9588   41.6549   33.5034 H           1 MOL       0.2100
     42 H10        62.9416   40.3020   35.5279 H           1 MOL       0.2100
     43 H11        64.8553   41.9701   38.5566 H           1 MOL       0.2095
     44 H12        57.8908   48.1288   38.2198 H           1 MOL       0.0671
     45 H13        58.9820   45.2982   38.0849 H           1 MOL       0.0648
     46 H14        59.7998   47.7127   36.4050 H           1 MOL       0.0651
     47 H15        61.5783   46.3231   38.4814 H           1 MOL       0.0647
     48 H16        63.0022   48.3580   38.2102 H           1 MOL       0.0584
     49 H17        61.9309   48.9608   36.9452 H           1 MOL       0.0584
     50 H18        59.6798   46.6466   40.2356 H           1 MOL       0.0938
     51 H19        56.7856   47.2891   39.9658 H           1 MOL       0.2101
     52 H20        57.6104   46.9094   36.2033 H           1 MOL       0.2100
     53 H21        63.5586   46.6525   36.9263 H           1 MOL       0.2095
     54 H22        61.1770   50.2499   39.2172 H           1 MOL       0.0586
     55 H23        61.8707   49.7817   40.7803 H           1 MOL       0.0586
     56 H24        60.0922   50.6825   42.0095 H           1 MOL       0.0702
     57 H25        58.7723   50.0658   39.3047 H           1 MOL       0.0654
     58 H26        57.4396   50.1122   42.0510 H           1 MOL       0.0674
     59 H27        56.3775   52.2045   41.3870 H           1 MOL       0.0850
     60 H28        57.1107   52.1372   39.7709 H           1 MOL       0.0850
     61 H29        62.7842   51.5859   39.4861 H           1 MOL       0.2095
     62 H30        56.4345   49.8737   39.4146 H           1 MOL       0.2101
     63 H31        58.5446   52.4027   42.3397 H           1 MOL       0.2348
     64 H32        58.3099   53.5948   41.2042 H           1 MOL       0.2348
@<TRIPOS>BOND
     1     1     2   1
     2     6     1   1
     3     1     7   1
     4     2     3   1
     5     2     8   1
     6     4     3   1
     7     3     9   1
     8     4     5   1
     9    10     4   1
    10     5    11   1
    11     6    10   1
    12    20     6   1
    13    12    13   1
    14    17    12   1
    15    12    18   1
    16    13    14   1
    17    13    19   1
    18    15    14   1
    19    14    20   1
    20    15    16   1
    21    21    15   1
    22    16    22   1
    23    17    21   1
    24    30    17   1
    25    24    23   1
    26    23    28   1
    27    25    24   1
    28    24    29   1
    29    25    26   1
    30    25    30   1
    31    26    27   1
    32    26    31   1
    33    27    32   1
    34    29    32   1
    35     1    33   1
    36     2    34   1
    37     3    35   1
    38     4    36   1
    39     5    37   1
    40     5    38   1
    41     6    39   1
    42     7    40   1
    43     8    41   1
    44     9    42   1
    45    11    43   1
    46    12    44   1
    47    13    45   1
    48    14    46   1
    49    15    47   1
    50    16    48   1
    51    16    49   1
    52    17    50   1
    53    18    51   1
    54    19    52   1
    55    22    53   1
    56    23    54   1
    57    23    55   1
    58    24    56   1
    59    25    57   1
    60    26    58   1
    61    27    59   1
    62    27    60   1
    63    28    61   1
    64    31    62   1
    65    32    63   1
    66    32    64   1
@<TRIPOS>SUBSTRUCTURE
     1  MOL      1

