@<TRIPOS>MOLECULE
1w3l_ligand_085
    64    66
SMALL
GAST_HUCK
****
This file was generated by PARSER (from files_GN.cpp)

@<TRIPOS>ATOM
      1 C2         57.3580   51.9282   36.1464 C.3         1 MOL       0.1341
      2 C3         56.4852   53.0427   36.8085 C.3         1 MOL       0.1141
      3 C4         55.3000   52.4314   37.6142 C.3         1 MOL       0.1119
      4 C5         55.8171   51.3540   38.6020 C.3         1 MOL       0.1130
      5 C6         54.6606   50.5897   39.3137 C.3         1 MOL       0.0730
      6 C1         57.7574   50.8290   37.1785 C.3         1 MOL       0.1884
      7 O2         58.4952   52.4703   35.4902 O.3         1 MOL      -0.3841
      8 O3         55.9795   53.9256   35.8094 O.3         1 MOL      -0.3864
      9 O4         54.5794   53.4376   38.3223 O.3         1 MOL      -0.3865
     10 O5         56.5847   50.3692   37.8899 O.3         1 MOL      -0.3405
     11 O6         55.1405   49.4534   40.0449 O.3         1 MOL      -0.3924
     12 C2         58.0797   46.1331   37.9639 C.3         1 MOL       0.1341
     13 C3         57.5940   47.4749   37.3597 C.3         1 MOL       0.1144
     14 C4         58.7461   48.5419   37.2549 C.3         1 MOL       0.1184
     15 C5         59.9483   47.8819   36.5040 C.3         1 MOL       0.1134
     16 C6         61.2169   48.7704   36.4425 C.3         1 MOL       0.0730
     17 C1         59.2943   45.6041   37.1795 C.3         1 MOL       0.1884
     18 O2         57.0193   45.1905   37.9536 O.3         1 MOL      -0.3841
     19 O3         56.5021   47.8346   38.2009 O.3         1 MOL      -0.3864
     20 O4         58.3342   49.6991   36.4842 O.3         1 MOL      -0.3401
     21 O5         60.3181   46.6248   37.1172 O.3         1 MOL      -0.3405
     22 O6         62.0498   48.5517   37.5836 O.3         1 MOL      -0.3924
     23 C6         61.7573   41.7312   35.9699 C.3         1 MOL       0.0782
     24 C5         60.6962   42.3766   36.9263 C.3         1 MOL       0.1538
     25 C4         60.9941   43.8362   37.3896 C.3         1 MOL       0.1259
     26 C3         61.9871   43.8669   38.5761 C.3         1 MOL       0.1245
     27 C2         61.5806   42.8387   39.6680 C.3         1 MOL       0.0256
     28 O6         62.5861   40.7598   36.5925 O.3         1 MOL      -0.3922
     29 O5         60.3668   41.5492   38.0643 O.3         1 MOL      -0.3215
     30 O4         59.7666   44.4339   37.8673 O.3         1 MOL      -0.3398
     31 O3         63.2984   43.6004   38.0851 O.3         1 MOL      -0.3838
     32 N1         61.3268   41.5244   39.0486 N.4         1 MOL       0.3939
     33 H1         56.7566   51.4434   35.3665 H           1 MOL       0.0671
     34 H2         57.1091   53.6204   37.4827 H           1 MOL       0.0648
     35 H3         54.6003   51.9572   36.9014 H           1 MOL       0.0647
     36 H4         56.4312   51.8167   39.3670 H           1 MOL       0.0647
     37 H5         53.9394   50.2179   38.5642 H           1 MOL       0.0584
     38 H6         54.1318   51.2425   40.0068 H           1 MOL       0.0584
     39 H7         58.4911   51.2406   37.8741 H           1 MOL       0.0938
     40 H8         59.0154   52.9468   36.1881 H           1 MOL       0.2101
     41 H9         56.7595   54.3643   35.4192 H           1 MOL       0.2100
     42 H10        54.1245   53.9798   37.6325 H           1 MOL       0.2100
     43 H11        54.3435   48.9621   40.3035 H           1 MOL       0.2095
     44 H12        58.3825   46.3005   39.0012 H           1 MOL       0.0671
     45 H13        57.2184   47.2920   36.3504 H           1 MOL       0.0648
     46 H14        59.0827   48.8303   38.2625 H           1 MOL       0.0651
     47 H15        59.6316   47.6927   35.4726 H           1 MOL       0.0647
     48 H16        60.9661   49.8314   36.3950 H           1 MOL       0.0584
     49 H17        61.8006   48.5287   35.5419 H           1 MOL       0.0584
     50 H18        58.9873   45.3126   36.1710 H           1 MOL       0.0938
     51 H19        56.6755   45.1880   37.0324 H           1 MOL       0.2101
     52 H20        55.9178   48.4081   37.6639 H           1 MOL       0.2100
     53 H21        62.5778   49.3667   37.6905 H           1 MOL       0.2095
     54 H22        62.4079   42.4933   35.5196 H           1 MOL       0.0586
     55 H23        61.2359   41.2357   35.1516 H           1 MOL       0.0586
     56 H24        59.7747   42.4437   36.3372 H           1 MOL       0.0702
     57 H25        61.4108   44.3893   36.5480 H           1 MOL       0.0654
     58 H26        62.0007   44.8670   39.0204 H           1 MOL       0.0674
     59 H27        60.6830   43.1734   40.1956 H           1 MOL       0.0850
     60 H28        62.3841   42.7334   40.4012 H           1 MOL       0.0850
     61 H29        62.9268   40.2039   35.8701 H           1 MOL       0.2095
     62 H30        63.8722   43.5908   38.8795 H           1 MOL       0.2101
     63 H31        61.0274   40.8736   39.7798 H           1 MOL       0.2348
     64 H32        62.2032   41.1839   38.6542 H           1 MOL       0.2348
@<TRIPOS>BOND
     1     1     2   1
     2     6     1   1
     3     1     7   1
     4     2     3   1
     5     2     8   1
     6     4     3   1
     7     3     9   1
     8     4     5   1
     9    10     4   1
    10     5    11   1
    11     6    10   1
    12    20     6   1
    13    12    13   1
    14    17    12   1
    15    12    18   1
    16    13    14   1
    17    13    19   1
    18    15    14   1
    19    14    20   1
    20    15    16   1
    21    21    15   1
    22    16    22   1
    23    17    21   1
    24    30    17   1
    25    24    23   1
    26    23    28   1
    27    25    24   1
    28    24    29   1
    29    25    26   1
    30    25    30   1
    31    26    27   1
    32    26    31   1
    33    27    32   1
    34    29    32   1
    35     1    33   1
    36     2    34   1
    37     3    35   1
    38     4    36   1
    39     5    37   1
    40     5    38   1
    41     6    39   1
    42     7    40   1
    43     8    41   1
    44     9    42   1
    45    11    43   1
    46    12    44   1
    47    13    45   1
    48    14    46   1
    49    15    47   1
    50    16    48   1
    51    16    49   1
    52    17    50   1
    53    18    51   1
    54    19    52   1
    55    22    53   1
    56    23    54   1
    57    23    55   1
    58    24    56   1
    59    25    57   1
    60    26    58   1
    61    27    59   1
    62    27    60   1
    63    28    61   1
    64    31    62   1
    65    32    63   1
    66    32    64   1
@<TRIPOS>SUBSTRUCTURE
     1  MOL      1

