@<TRIPOS>MOLECULE
1w3l_ligand_053
    64    66
SMALL
GAST_HUCK
****
This file was generated by PARSER (from files_GN.cpp)

@<TRIPOS>ATOM
      1 C2         61.3747   43.2804   39.1691 C.3         1 MOL       0.1341
      2 C3         62.3386   42.3046   38.4191 C.3         1 MOL       0.1141
      3 C4         61.7527   41.8355   37.0587 C.3         1 MOL       0.1119
      4 C5         61.2735   43.0568   36.2321 C.3         1 MOL       0.1130
      5 C6         60.5333   42.6740   34.9295 C.3         1 MOL       0.0730
      6 C1         60.8850   44.4185   38.2388 C.3         1 MOL       0.1884
      7 O2         62.0235   43.8747   40.2926 O.3         1 MOL      -0.3841
      8 O3         62.5885   41.1380   39.2107 O.3         1 MOL      -0.3864
      9 O4         62.7660   41.1239   36.3509 O.3         1 MOL      -0.3865
     10 O5         60.3345   43.8070   37.0519 O.3         1 MOL      -0.3405
     11 O6         59.6066   43.7019   34.5916 O.3         1 MOL      -0.3924
     12 C2         57.0540   47.0860   37.0243 C.3         1 MOL       0.1341
     13 C3         57.9406   45.8924   37.4458 C.3         1 MOL       0.1144
     14 C4         59.2421   46.3224   38.2027 C.3         1 MOL       0.1184
     15 C5         58.8917   47.3965   39.2818 C.3         1 MOL       0.1134
     16 C6         60.1659   48.0214   39.9081 C.3         1 MOL       0.0730
     17 C1         56.8203   48.0743   38.1896 C.3         1 MOL       0.1884
     18 O2         55.8021   46.5847   36.5477 O.3         1 MOL      -0.3841
     19 O3         58.1918   45.2005   36.2320 O.3         1 MOL      -0.3864
     20 O4         59.8571   45.1963   38.8945 O.3         1 MOL      -0.3401
     21 O5         58.0936   48.4768   38.7347 O.3         1 MOL      -0.3405
     22 O6         59.8703   48.6350   41.1581 O.3         1 MOL      -0.3924
     23 C6         57.2936   51.9196   37.8296 C.3         1 MOL       0.0782
     24 C5         56.3674   51.3031   38.9059 C.3         1 MOL       0.1538
     25 C4         55.4214   50.1911   38.3491 C.3         1 MOL       0.1259
     26 C3         54.4701   49.6919   39.4709 C.3         1 MOL       0.1245
     27 C2         53.7677   50.8999   40.1438 C.3         1 MOL       0.0256
     28 O6         56.6413   52.1219   36.5790 O.3         1 MOL      -0.3922
     29 O5         55.5552   52.3466   39.4935 O.3         1 MOL      -0.3215
     30 O4         56.1032   49.1721   37.5971 O.3         1 MOL      -0.3398
     31 O3         53.5051   48.7805   38.9447 O.3         1 MOL      -0.3838
     32 N1         54.7846   51.9023   40.5412 N.4         1 MOL       0.3939
     33 H1         60.5116   42.7048   39.5235 H           1 MOL       0.0671
     34 H2         63.2968   42.8101   38.2391 H           1 MOL       0.0648
     35 H3         60.9079   41.1588   37.2534 H           1 MOL       0.0647
     36 H4         62.1208   43.6915   35.9646 H           1 MOL       0.0647
     37 H5         59.9940   41.7298   35.0390 H           1 MOL       0.0584
     38 H6         61.2611   42.5798   34.1119 H           1 MOL       0.0584
     39 H7         61.7212   45.0680   37.9835 H           1 MOL       0.0938
     40 H8         62.8407   43.3511   40.4331 H           1 MOL       0.2101
     41 H9         63.4290   41.3139   39.6785 H           1 MOL       0.2100
     42 H10        62.3325   40.3021   36.0441 H           1 MOL       0.2100
     43 H11        59.1975   43.4092   33.7504 H           1 MOL       0.2095
     44 H12        57.5516   47.6177   36.2047 H           1 MOL       0.0671
     45 H13        57.3654   45.2334   38.1010 H           1 MOL       0.0648
     46 H14        59.9272   46.7763   37.4755 H           1 MOL       0.0651
     47 H15        58.3318   46.9138   40.0935 H           1 MOL       0.0647
     48 H16        60.5739   48.7830   39.2420 H           1 MOL       0.0584
     49 H17        60.9276   47.2572   40.0725 H           1 MOL       0.0584
     50 H18        56.2072   47.5953   38.9564 H           1 MOL       0.0938
     51 H19        55.1528   47.3022   36.7080 H           1 MOL       0.2101
     52 H20        59.0559   44.7169   36.3823 H           1 MOL       0.2100
     53 H21        59.6563   47.8965   41.7665 H           1 MOL       0.2095
     54 H22        58.1644   51.2806   37.6702 H           1 MOL       0.0586
     55 H23        57.6459   52.8903   38.1835 H           1 MOL       0.0586
     56 H24        57.0064   50.8772   39.6896 H           1 MOL       0.0702
     57 H25        54.7798   50.6755   37.6087 H           1 MOL       0.0654
     58 H26        55.0471   49.1657   40.2341 H           1 MOL       0.0674
     59 H27        53.2238   50.5712   41.0316 H           1 MOL       0.0850
     60 H28        53.0570   51.3624   39.4532 H           1 MOL       0.0850
     61 H29        56.5655   51.2312   36.1725 H           1 MOL       0.2095
     62 H30        53.0313   49.2782   38.2451 H           1 MOL       0.2101
     63 H31        55.3937   51.4900   41.2508 H           1 MOL       0.2348
     64 H32        54.3030   52.7039   40.9540 H           1 MOL       0.2348
@<TRIPOS>BOND
     1     1     2   1
     2     6     1   1
     3     1     7   1
     4     2     3   1
     5     2     8   1
     6     4     3   1
     7     3     9   1
     8     4     5   1
     9    10     4   1
    10     5    11   1
    11     6    10   1
    12    20     6   1
    13    12    13   1
    14    17    12   1
    15    12    18   1
    16    13    14   1
    17    13    19   1
    18    15    14   1
    19    14    20   1
    20    15    16   1
    21    21    15   1
    22    16    22   1
    23    17    21   1
    24    30    17   1
    25    24    23   1
    26    23    28   1
    27    25    24   1
    28    24    29   1
    29    25    26   1
    30    25    30   1
    31    26    27   1
    32    26    31   1
    33    27    32   1
    34    29    32   1
    35     1    33   1
    36     2    34   1
    37     3    35   1
    38     4    36   1
    39     5    37   1
    40     5    38   1
    41     6    39   1
    42     7    40   1
    43     8    41   1
    44     9    42   1
    45    11    43   1
    46    12    44   1
    47    13    45   1
    48    14    46   1
    49    15    47   1
    50    16    48   1
    51    16    49   1
    52    17    50   1
    53    18    51   1
    54    19    52   1
    55    22    53   1
    56    23    54   1
    57    23    55   1
    58    24    56   1
    59    25    57   1
    60    26    58   1
    61    27    59   1
    62    27    60   1
    63    28    61   1
    64    31    62   1
    65    32    63   1
    66    32    64   1
@<TRIPOS>SUBSTRUCTURE
     1  MOL      1

