@<TRIPOS>MOLECULE
1w3l_ligand_025
    64    66
SMALL
GAST_HUCK
****
This file was generated by PARSER (from files_GN.cpp)

@<TRIPOS>ATOM
      1 C2         60.9047   43.2368   36.3066 C.3         1 MOL       0.1341
      2 C3         60.9265   44.3159   35.1886 C.3         1 MOL       0.1141
      3 C4         61.0875   45.7294   35.8067 C.3         1 MOL       0.1119
      4 C5         62.3733   45.7676   36.6802 C.3         1 MOL       0.1130
      5 C6         62.6043   47.1474   37.3483 C.3         1 MOL       0.0730
      6 C1         62.1471   43.3941   37.2329 C.3         1 MOL       0.1884
      7 O2         60.8363   41.9533   35.6895 O.3         1 MOL      -0.3841
      8 O3         59.7250   44.2636   34.4253 O.3         1 MOL      -0.3864
      9 O4         61.1275   46.7161   34.7758 O.3         1 MOL      -0.3865
     10 O5         62.2623   44.7545   37.7096 O.3         1 MOL      -0.3405
     11 O6         62.9859   48.1245   36.3806 O.3         1 MOL      -0.3924
     12 C2         64.0003   39.2472   38.2149 C.3         1 MOL       0.1341
     13 C3         63.6088   40.6861   37.7850 C.3         1 MOL       0.1144
     14 C4         62.2828   41.1612   38.4654 C.3         1 MOL       0.1184
     15 C5         62.2054   40.7513   39.9789 C.3         1 MOL       0.1134
     16 C6         60.7564   40.8291   40.5345 C.3         1 MOL       0.0730
     17 C1         64.0434   39.1822   39.7624 C.3         1 MOL       0.1884
     18 O2         65.2631   38.8989   37.6448 O.3         1 MOL      -0.3841
     19 O3         63.4752   40.7295   36.3593 O.3         1 MOL      -0.3864
     20 O4         62.0864   42.5981   38.4364 O.3         1 MOL      -0.3401
     21 O5         62.7065   39.4188   40.2377 O.3         1 MOL      -0.3405
     22 O6         60.6407   40.2144   41.8157 O.3         1 MOL      -0.3924
     23 C6         67.5216   38.5588   39.8793 C.3         1 MOL       0.0782
     24 C5         66.8281   37.3775   40.6226 C.3         1 MOL       0.1538
     25 C4         65.4408   37.7375   41.2525 C.3         1 MOL       0.1259
     26 C3         64.9628   36.6096   42.2090 C.3         1 MOL       0.1245
     27 C2         66.1058   36.1317   43.1380 C.3         1 MOL       0.0256
     28 O6         68.1567   38.1055   38.6855 O.3         1 MOL      -0.3922
     29 O5         67.7547   36.9231   41.6374 O.3         1 MOL      -0.3215
     30 O4         64.4569   37.8707   40.1966 O.3         1 MOL      -0.3398
     31 O3         63.8632   37.0444   43.0071 O.3         1 MOL      -0.3838
     32 N1         67.3021   35.8272   42.3264 N.4         1 MOL       0.3939
     33 H1         60.0002   43.3711   36.9076 H           1 MOL       0.0671
     34 H2         61.7654   44.1236   34.5083 H           1 MOL       0.0648
     35 H3         60.2198   45.9462   36.4367 H           1 MOL       0.0647
     36 H4         63.2511   45.5553   36.0617 H           1 MOL       0.0647
     37 H5         63.4140   47.0694   38.0755 H           1 MOL       0.0584
     38 H6         61.7027   47.4838   37.8672 H           1 MOL       0.0584
     39 H7         63.0591   43.1710   36.6721 H           1 MOL       0.0938
     40 H8         60.2013   41.4365   36.2257 H           1 MOL       0.2101
     41 H9         59.8480   43.5873   33.7259 H           1 MOL       0.2100
     42 H10        60.2027   46.7856   34.4567 H           1 MOL       0.2100
     43 H11        63.1089   48.9637   36.8798 H           1 MOL       0.2095
     44 H12        63.2552   38.5359   37.8431 H           1 MOL       0.0671
     45 H13        64.4147   41.3703   38.0681 H           1 MOL       0.0648
     46 H14        61.4541   40.6760   37.9477 H           1 MOL       0.0651
     47 H15        62.8112   41.4512   40.5650 H           1 MOL       0.0647
     48 H16        60.0550   40.3309   39.8593 H           1 MOL       0.0584
     49 H17        60.4545   41.8737   40.6325 H           1 MOL       0.0584
     50 H18        64.7199   39.9576   40.1327 H           1 MOL       0.0938
     51 H19        65.3229   37.9222   37.7271 H           1 MOL       0.2101
     52 H20        63.3749   39.7876   36.0649 H           1 MOL       0.2100
     53 H21        60.7139   39.2512   41.6409 H           1 MOL       0.2095
     54 H22        68.2732   39.0292   40.5161 H           1 MOL       0.0586
     55 H23        66.8127   39.3384   39.5989 H           1 MOL       0.0586
     56 H24        66.6653   36.5621   39.9083 H           1 MOL       0.0702
     57 H25        65.5422   38.6461   41.8500 H           1 MOL       0.0654
     58 H26        64.6242   35.7620   41.6133 H           1 MOL       0.0674
     59 H27        65.8025   35.2324   43.6794 H           1 MOL       0.0850
     60 H28        66.3537   36.9085   43.8673 H           1 MOL       0.0850
     61 H29        67.4905   38.2342   37.9745 H           1 MOL       0.2095
     62 H30        63.0839   37.0254   42.4139 H           1 MOL       0.2101
     63 H31        67.0868   35.0769   41.6616 H           1 MOL       0.2348
     64 H32        68.0467   35.5084   42.9531 H           1 MOL       0.2348
@<TRIPOS>BOND
     1     1     2   1
     2     6     1   1
     3     1     7   1
     4     2     3   1
     5     2     8   1
     6     4     3   1
     7     3     9   1
     8     4     5   1
     9    10     4   1
    10     5    11   1
    11     6    10   1
    12    20     6   1
    13    12    13   1
    14    17    12   1
    15    12    18   1
    16    13    14   1
    17    13    19   1
    18    15    14   1
    19    14    20   1
    20    15    16   1
    21    21    15   1
    22    16    22   1
    23    17    21   1
    24    30    17   1
    25    24    23   1
    26    23    28   1
    27    25    24   1
    28    24    29   1
    29    25    26   1
    30    25    30   1
    31    26    27   1
    32    26    31   1
    33    27    32   1
    34    29    32   1
    35     1    33   1
    36     2    34   1
    37     3    35   1
    38     4    36   1
    39     5    37   1
    40     5    38   1
    41     6    39   1
    42     7    40   1
    43     8    41   1
    44     9    42   1
    45    11    43   1
    46    12    44   1
    47    13    45   1
    48    14    46   1
    49    15    47   1
    50    16    48   1
    51    16    49   1
    52    17    50   1
    53    18    51   1
    54    19    52   1
    55    22    53   1
    56    23    54   1
    57    23    55   1
    58    24    56   1
    59    25    57   1
    60    26    58   1
    61    27    59   1
    62    27    60   1
    63    28    61   1
    64    31    62   1
    65    32    63   1
    66    32    64   1
@<TRIPOS>SUBSTRUCTURE
     1  MOL      1

