@<TRIPOS>MOLECULE
1w3l_ligand_017
    64    66
SMALL
GAST_HUCK
****
This file was generated by PARSER (from files_GN.cpp)

@<TRIPOS>ATOM
      1 C2         58.9590   50.4000   40.2423 C.3         1 MOL       0.1341
      2 C3         58.5607   50.1559   41.7257 C.3         1 MOL       0.1141
      3 C4         57.0253   49.9450   41.8716 C.3         1 MOL       0.1119
      4 C5         56.5266   48.8549   40.8759 C.3         1 MOL       0.1130
      5 C6         54.9831   48.7420   40.8026 C.3         1 MOL       0.0730
      6 C1         58.4090   49.2465   39.3622 C.3         1 MOL       0.1884
      7 O2         60.3779   50.4795   40.1314 O.3         1 MOL      -0.3841
      8 O3         58.9900   51.2582   42.5250 O.3         1 MOL      -0.3864
      9 O4         56.7136   49.5643   43.2110 O.3         1 MOL      -0.3865
     10 O5         56.9811   49.1588   39.5420 O.3         1 MOL      -0.3405
     11 O6         54.4133   48.2559   42.0134 O.3         1 MOL      -0.3924
     12 C2         61.6527   47.7093   36.4338 C.3         1 MOL       0.1341
     13 C3         60.8474   48.7221   37.2861 C.3         1 MOL       0.1144
     14 C4         59.3091   48.5811   37.0938 C.3         1 MOL       0.1184
     15 C5         58.8436   47.0820   37.1673 C.3         1 MOL       0.1134
     16 C6         57.3805   46.8576   36.6985 C.3         1 MOL       0.0730
     17 C1         61.0927   46.2889   36.6704 C.3         1 MOL       0.1884
     18 O2         63.0318   47.7628   36.8069 O.3         1 MOL      -0.3841
     19 O3         61.2302   50.0556   36.9471 O.3         1 MOL      -0.3864
     20 O4         58.5904   49.5034   37.9514 O.3         1 MOL      -0.3401
     21 O5         59.6880   46.2392   36.3493 O.3         1 MOL      -0.3405
     22 O6         56.4449   47.1943   37.7183 O.3         1 MOL      -0.3924
     23 C6         63.7043   43.9486   37.7187 C.3         1 MOL       0.0782
     24 C5         63.0791   43.3908   36.4166 C.3         1 MOL       0.1538
     25 C4         61.6635   43.9733   36.1111 C.3         1 MOL       0.1259
     26 C3         61.0387   43.2481   34.8901 C.3         1 MOL       0.1245
     27 C2         61.1243   41.7169   35.0890 C.3         1 MOL       0.0256
     28 O6         62.7698   43.9233   38.7947 O.3         1 MOL      -0.3922
     29 O5         62.9951   41.9564   36.5441 O.3         1 MOL      -0.3215
     30 O4         61.7897   45.3787   35.8052 O.3         1 MOL      -0.3398
     31 O3         59.6818   43.6593   34.7197 O.3         1 MOL      -0.3838
     32 N1         62.5168   41.3489   35.4132 N.4         1 MOL       0.3939
     33 H1         58.5342   51.3464   39.8936 H           1 MOL       0.0671
     34 H2         59.0787   49.2623   42.0925 H           1 MOL       0.0648
     35 H3         56.5214   50.8920   41.6499 H           1 MOL       0.0647
     36 H4         56.9233   47.8810   41.1798 H           1 MOL       0.0647
     37 H5         54.7129   48.0401   40.0106 H           1 MOL       0.0584
     38 H6         54.5403   49.7111   40.5604 H           1 MOL       0.0584
     39 H7         58.8804   48.3116   39.6758 H           1 MOL       0.0938
     40 H8         60.6489   51.1983   40.7403 H           1 MOL       0.2101
     41 H9         58.9754   50.9281   43.4485 H           1 MOL       0.2100
     42 H10        56.7571   50.3918   43.7355 H           1 MOL       0.2100
     43 H11        54.5587   48.9663   42.6724 H           1 MOL       0.2095
     44 H12        61.5620   47.9698   35.3757 H           1 MOL       0.0671
     45 H13        61.0891   48.5510   38.3381 H           1 MOL       0.0648
     46 H14        59.1005   48.9194   36.0733 H           1 MOL       0.0651
     47 H15        58.9156   46.7056   38.1916 H           1 MOL       0.0647
     48 H16        57.2385   45.8008   36.4516 H           1 MOL       0.0584
     49 H17        57.1636   47.4520   35.8082 H           1 MOL       0.0584
     50 H18        61.2612   46.0170   37.7212 H           1 MOL       0.0938
     51 H19        63.4334   46.9344   36.4738 H           1 MOL       0.2101
     52 H20        62.2095   50.0694   36.9519 H           1 MOL       0.2100
     53 H21        55.5693   47.1716   37.2808 H           1 MOL       0.2095
     54 H22        64.0496   44.9747   37.5743 H           1 MOL       0.0586
     55 H23        64.5691   43.3367   37.9875 H           1 MOL       0.0586
     56 H24        63.7599   43.6348   35.5908 H           1 MOL       0.0702
     57 H25        61.0149   43.7758   36.9749 H           1 MOL       0.0654
     58 H26        61.5899   43.5219   33.9837 H           1 MOL       0.0674
     59 H27        60.8326   41.2082   34.1705 H           1 MOL       0.0850
     60 H28        60.4597   41.3980   35.8964 H           1 MOL       0.0850
     61 H29        63.2777   43.5729   39.5534 H           1 MOL       0.2095
     62 H30        59.3690   43.1986   33.9141 H           1 MOL       0.2101
     63 H31        63.1012   41.5934   34.6155 H           1 MOL       0.2348
     64 H32        62.5623   40.3417   35.5447 H           1 MOL       0.2348
@<TRIPOS>BOND
     1     1     2   1
     2     6     1   1
     3     1     7   1
     4     2     3   1
     5     2     8   1
     6     4     3   1
     7     3     9   1
     8     4     5   1
     9    10     4   1
    10     5    11   1
    11     6    10   1
    12    20     6   1
    13    12    13   1
    14    17    12   1
    15    12    18   1
    16    13    14   1
    17    13    19   1
    18    15    14   1
    19    14    20   1
    20    15    16   1
    21    21    15   1
    22    16    22   1
    23    17    21   1
    24    30    17   1
    25    24    23   1
    26    23    28   1
    27    25    24   1
    28    24    29   1
    29    25    26   1
    30    25    30   1
    31    26    27   1
    32    26    31   1
    33    27    32   1
    34    29    32   1
    35     1    33   1
    36     2    34   1
    37     3    35   1
    38     4    36   1
    39     5    37   1
    40     5    38   1
    41     6    39   1
    42     7    40   1
    43     8    41   1
    44     9    42   1
    45    11    43   1
    46    12    44   1
    47    13    45   1
    48    14    46   1
    49    15    47   1
    50    16    48   1
    51    16    49   1
    52    17    50   1
    53    18    51   1
    54    19    52   1
    55    22    53   1
    56    23    54   1
    57    23    55   1
    58    24    56   1
    59    25    57   1
    60    26    58   1
    61    27    59   1
    62    27    60   1
    63    28    61   1
    64    31    62   1
    65    32    63   1
    66    32    64   1
@<TRIPOS>SUBSTRUCTURE
     1  MOL      1

