@<TRIPOS>MOLECULE
1w4o_ligand_016
    32    33
SMALL
GAST_HUCK
****
This file was generated by PARSER (from files_GN.cpp)

@<TRIPOS>ATOM
      1 N1         41.6817    5.5868    6.6011 N.am        1 UA3      -0.1592
      2 C2         42.9574    5.5256    6.1518 C.2         1 UA3       0.3328
      3 O2         43.8798    5.0633    6.8078 O.2         1 UA3      -0.3815
      4 N3         43.2622    5.9201    4.9161 N.am        1 UA3      -0.1865
      5 C4         42.3426    6.4267    4.1007 C.2         1 UA3       0.1822
      6 O4         42.6818    6.7712    2.9825 O.2         1 UA3      -0.4124
      7 C5         41.0620    6.5824    4.5321 C.2         1 UA3       0.0062
      8 C6         40.7518    6.1591    5.7705 C.2         1 UA3       0.0591
      9 O5         41.5298    8.0300   11.0394 O.3         1 UA3      -0.3924
     10 C5         42.4369    6.9382   10.9409 C.3         1 UA3       0.0734
     11 C4         41.7794    5.8125   10.1211 C.3         1 UA3       0.1182
     12 O4         41.4592    6.3148    8.8198 O.3         1 UA3      -0.3363
     13 C3         42.6783    4.5907    9.8405 C.3         1 UA3       0.1483
     14 O3         42.7904    3.5976   10.8763 O.3         1 UA3      -0.2675
     15 C2         41.9217    3.9721    8.6524 C.3         1 UA3       0.1433
     16 O2         42.7884    3.1828    7.8546 O.3         1 UA3      -0.3833
     17 C1         41.2652    5.1951    7.9447 C.3         1 UA3       0.2062
     18 O3P        45.2664    4.0060   11.2148 O.co2       1 UA3      -0.5537
     19 P          44.0238    3.6012   11.8194 P.3         1 UA3       0.2013
     20 O1P        44.2312    2.2197   12.2065 O.co2       1 UA3      -0.5537
     21 O2P        43.7940    4.3311   13.0442 O.co2       1 UA3      -0.5537
     22 H1         44.1737    5.8333    4.5983 H           1 UA3       0.2259
     23 H2         40.3812    7.0214    3.9591 H           1 UA3       0.0258
     24 H3         39.8147    6.3047    6.0783 H           1 UA3       0.1178
     25 H4         42.0879    8.8047   11.2819 H           1 UA3       0.2095
     26 H5         42.6617    6.5905   11.9461 H           1 UA3       0.0584
     27 H6         43.3586    7.2720   10.4625 H           1 UA3       0.0584
     28 H7         40.8600    5.4913   10.6347 H           1 UA3       0.0650
     29 H8         43.6607    4.9298    9.4792 H           1 UA3       0.0704
     30 H9         41.1360    3.3132    9.0376 H           1 UA3       0.0680
     31 H10        42.3126    3.0608    7.0031 H           1 UA3       0.2101
     32 H11        40.1848    4.9892    7.9535 H           1 UA3       0.0997
@<TRIPOS>BOND
     1     1     2  am
     2     1     8   1
     3    17     1   1
     4     2     3   2
     5     2     4  am
     6     4     5  am
     7     5     6   2
     8     7     5   1
     9     8     7   2
    10    10     9   1
    11    11    10   1
    12    12    11   1
    13    11    13   1
    14    12    17   1
    15    13    14   1
    16    13    15   1
    17    14    19   1
    18    15    16   1
    19    15    17   1
    20    19    18  ar
    21    19    20  ar
    22    19    21  ar
    23     4    22   1
    24     7    23   1
    25     8    24   1
    26     9    25   1
    27    10    26   1
    28    10    27   1
    29    11    28   1
    30    13    29   1
    31    15    30   1
    32    16    31   1
    33    17    32   1
@<TRIPOS>SUBSTRUCTURE
     1  UA3      2

