@<TRIPOS>MOLECULE
1w4o_ligand_048
    32    33
SMALL
GAST_HUCK
****
This file was generated by PARSER (from files_GN.cpp)

@<TRIPOS>ATOM
      1 N1         42.1007    6.3507    9.3586 N.am        1 UA3      -0.1592
      2 C2         42.4022    7.6191    9.7057 C.2         1 UA3       0.3328
      3 O2         41.6656    8.3510   10.3568 O.2         1 UA3      -0.3815
      4 N3         43.5739    8.1583    9.3580 N.am        1 UA3      -0.1865
      5 C4         44.4774    7.4713    8.6658 C.2         1 UA3       0.1822
      6 O4         45.5399    8.0050    8.3885 O.2         1 UA3      -0.4124
      7 C5         44.2088    6.1991    8.2706 C.2         1 UA3       0.0062
      8 C6         43.0064    5.6712    8.5828 C.2         1 UA3       0.0591
      9 O5         39.6016    7.0354   13.2778 O.3         1 UA3      -0.3924
     10 C5         38.6649    6.1488   12.6686 C.3         1 UA3       0.0734
     11 C4         39.2305    5.4659   11.3974 C.3         1 UA3       0.1182
     12 O4         40.0043    6.3935   10.6342 O.3         1 UA3      -0.3363
     13 C3         40.1740    4.2778   11.6699 C.3         1 UA3       0.1483
     14 O3         39.3873    3.0881   11.9070 O.3         1 UA3      -0.2675
     15 C2         41.0616    4.2694   10.4044 C.3         1 UA3       0.1433
     16 O2         42.4131    3.9585   10.7443 O.3         1 UA3      -0.3833
     17 C1         40.8639    5.6623    9.7405 C.3         1 UA3       0.2062
     18 O3P        40.7465    2.1049   13.7600 O.co2       1 UA3      -0.5537
     19 P          40.1105    1.8407   12.4949 P.3         1 UA3       0.2013
     20 O1P        41.0692    1.2906   11.5693 O.co2       1 UA3      -0.5537
     21 O2P        39.1224    0.8175   12.7163 O.co2       1 UA3      -0.5537
     22 H1         43.7762    9.0706    9.6230 H           1 UA3       0.2259
     23 H2         44.8763    5.6718    7.7510 H           1 UA3       0.0258
     24 H3         42.8008    4.7572    8.2519 H           1 UA3       0.1178
     25 H4         40.3616    6.4811   13.5537 H           1 UA3       0.2095
     26 H5         37.7831    6.7345   12.4006 H           1 UA3       0.0584
     27 H6         38.3615    5.3927   13.3944 H           1 UA3       0.0584
     28 H7         38.3876    5.1324   10.7828 H           1 UA3       0.0650
     29 H8         40.7840    4.5203   12.5476 H           1 UA3       0.0704
     30 H9         40.7168    3.4979    9.7146 H           1 UA3       0.0680
     31 H10        42.3932    3.0253   11.0391 H           1 UA3       0.2101
     32 H11        40.2739    5.5270    8.8232 H           1 UA3       0.0997
@<TRIPOS>BOND
     1     1     2  am
     2     1     8   1
     3    17     1   1
     4     2     3   2
     5     2     4  am
     6     4     5  am
     7     5     6   2
     8     7     5   1
     9     8     7   2
    10    10     9   1
    11    11    10   1
    12    12    11   1
    13    11    13   1
    14    12    17   1
    15    13    14   1
    16    13    15   1
    17    14    19   1
    18    15    16   1
    19    15    17   1
    20    19    18  ar
    21    19    20  ar
    22    19    21  ar
    23     4    22   1
    24     7    23   1
    25     8    24   1
    26     9    25   1
    27    10    26   1
    28    10    27   1
    29    11    28   1
    30    13    29   1
    31    15    30   1
    32    16    31   1
    33    17    32   1
@<TRIPOS>SUBSTRUCTURE
     1  UA3      2

