@<TRIPOS>MOLECULE
1w4o_ligand_040
    32    33
SMALL
GAST_HUCK
****
This file was generated by PARSER (from files_GN.cpp)

@<TRIPOS>ATOM
      1 N1         42.2717    8.0517    7.6971 N.am        1 UA3      -0.1592
      2 C2         41.1821    8.1799    8.4881 C.2         1 UA3       0.3328
      3 O2         41.2122    8.1132    9.7100 O.2         1 UA3      -0.3815
      4 N3         39.9793    8.3677    7.9488 N.am        1 UA3      -0.1865
      5 C4         39.8135    8.4449    6.6303 C.2         1 UA3       0.1822
      6 O4         38.6874    8.5922    6.1731 O.2         1 UA3      -0.4124
      7 C5         40.8847    8.3340    5.7981 C.2         1 UA3       0.0062
      8 C6         42.1009    8.1523    6.3393 C.2         1 UA3       0.0591
      9 O5         46.6247    6.9281    5.6780 O.3         1 UA3      -0.3924
     10 C5         46.8561    6.5400    7.0296 C.3         1 UA3       0.0734
     11 C4         45.7812    7.0916    8.0192 C.3         1 UA3       0.1182
     12 O4         44.6632    7.6630    7.3269 O.3         1 UA3      -0.3363
     13 C3         45.1406    6.0490    8.9655 C.3         1 UA3       0.1483
     14 O3         45.9317    5.9348   10.1678 O.3         1 UA3      -0.2675
     15 C2         43.7197    6.6063    9.2152 C.3         1 UA3       0.1433
     16 O2         42.7219    5.6123    8.9617 O.3         1 UA3      -0.3833
     17 C1         43.5960    7.8428    8.2816 C.3         1 UA3       0.2062
     18 O3P        44.5124    4.0059   10.9945 O.co2       1 UA3      -0.5537
     19 P          45.8157    4.6314   11.0034 P.3         1 UA3       0.2013
     20 O1P        46.1216    4.9595   12.3783 O.co2       1 UA3      -0.5537
     21 O2P        46.8113    3.6668   10.5886 O.co2       1 UA3      -0.5537
     22 H1         39.2056    8.4476    8.5245 H           1 UA3       0.2259
     23 H2         40.7849    8.4314    4.8112 H           1 UA3       0.0258
     24 H3         42.8788    8.0978    5.7271 H           1 UA3       0.1178
     25 H4         45.7415    6.5718    5.4394 H           1 UA3       0.2095
     26 H5         47.8366    6.9198    7.3109 H           1 UA3       0.0584
     27 H6         46.9063    5.4533    7.0555 H           1 UA3       0.0584
     28 H7         46.2411    7.8876    8.6198 H           1 UA3       0.0650
     29 H8         45.0702    5.0918    8.4369 H           1 UA3       0.0704
     30 H9         43.6111    6.9317   10.2544 H           1 UA3       0.0680
     31 H10        42.7017    5.4889    7.9893 H           1 UA3       0.2101
     32 H11        43.8429    8.7517    8.8520 H           1 UA3       0.0997
@<TRIPOS>BOND
     1     1     2  am
     2     1     8   1
     3    17     1   1
     4     2     3   2
     5     2     4  am
     6     4     5  am
     7     5     6   2
     8     7     5   1
     9     8     7   2
    10    10     9   1
    11    11    10   1
    12    12    11   1
    13    11    13   1
    14    12    17   1
    15    13    14   1
    16    13    15   1
    17    14    19   1
    18    15    16   1
    19    15    17   1
    20    19    18  ar
    21    19    20  ar
    22    19    21  ar
    23     4    22   1
    24     7    23   1
    25     8    24   1
    26     9    25   1
    27    10    26   1
    28    10    27   1
    29    11    28   1
    30    13    29   1
    31    15    30   1
    32    16    31   1
    33    17    32   1
@<TRIPOS>SUBSTRUCTURE
     1  UA3      2

