@<TRIPOS>MOLECULE
1w4o_ligand_039
    32    33
SMALL
GAST_HUCK
****
This file was generated by PARSER (from files_GN.cpp)

@<TRIPOS>ATOM
      1 N1         42.1287    6.1428    8.3095 N.am        1 UA3      -0.1592
      2 C2         40.8554    6.4690    8.6139 C.2         1 UA3       0.3328
      3 O2         40.5405    7.1254    9.6030 O.2         1 UA3      -0.3815
      4 N3         39.8565    6.0649    7.8353 N.am        1 UA3      -0.1865
      5 C4         40.0716    5.3370    6.7412 C.2         1 UA3       0.1822
      6 O4         39.1224    4.9950    6.0559 O.2         1 UA3      -0.4124
      7 C5         41.3380    4.9720    6.4020 C.2         1 UA3       0.0062
      8 C6         42.3511    5.3747    7.1967 C.2         1 UA3       0.0591
      9 O5         46.7891    8.2395    7.4077 O.3         1 UA3      -0.3924
     10 C5         46.7447    6.9567    8.0269 C.3         1 UA3       0.0734
     11 C4         45.5466    6.8584    8.9997 C.3         1 UA3       0.1182
     12 O4         44.3135    7.0881    8.3103 O.3         1 UA3      -0.3363
     13 C3         45.3659    5.4540    9.6332 C.3         1 UA3       0.1483
     14 O3         46.2520    5.0068   10.6868 O.3         1 UA3      -0.2675
     15 C2         43.8676    5.4214    9.9989 C.3         1 UA3       0.1433
     16 O2         43.3120    4.1237    9.7737 O.3         1 UA3      -0.3833
     17 C1         43.2564    6.5561    9.1307 C.3         1 UA3       0.2062
     18 O3P        47.2960    5.0528   12.8486 O.co2       1 UA3      -0.5537
     19 P          46.6869    5.9201   11.8720 P.3         1 UA3       0.2013
     20 O1P        45.6104    6.6265   12.5216 O.co2       1 UA3      -0.5537
     21 O2P        47.7085    6.8479   11.4591 O.co2       1 UA3      -0.5537
     22 H1         38.9441    6.3052    8.0709 H           1 UA3       0.2259
     23 H2         41.5159    4.4192    5.5945 H           1 UA3       0.0258
     24 H3         43.2729    5.0936    6.9515 H           1 UA3       0.1178
     25 H4         45.9649    8.2993    6.8785 H           1 UA3       0.2095
     26 H5         47.6800    6.8016    8.5684 H           1 UA3       0.0584
     27 H6         46.6669    6.1963    7.2464 H           1 UA3       0.0584
     28 H7         45.6491    7.6297    9.7686 H           1 UA3       0.0650
     29 H8         45.5089    4.7260    8.8298 H           1 UA3       0.0704
     30 H9         43.7279    5.6515   11.0584 H           1 UA3       0.0680
     31 H10        42.3761    4.1827   10.0585 H           1 UA3       0.2101
     32 H11        42.9763    7.3765    9.8028 H           1 UA3       0.0997
@<TRIPOS>BOND
     1     1     2  am
     2     1     8   1
     3    17     1   1
     4     2     3   2
     5     2     4  am
     6     4     5  am
     7     5     6   2
     8     7     5   1
     9     8     7   2
    10    10     9   1
    11    11    10   1
    12    12    11   1
    13    11    13   1
    14    12    17   1
    15    13    14   1
    16    13    15   1
    17    14    19   1
    18    15    16   1
    19    15    17   1
    20    19    18  ar
    21    19    20  ar
    22    19    21  ar
    23     4    22   1
    24     7    23   1
    25     8    24   1
    26     9    25   1
    27    10    26   1
    28    10    27   1
    29    11    28   1
    30    13    29   1
    31    15    30   1
    32    16    31   1
    33    17    32   1
@<TRIPOS>SUBSTRUCTURE
     1  UA3      2

