@<TRIPOS>MOLECULE
1w4o_ligand_058
    32    33
SMALL
GAST_HUCK
****
This file was generated by PARSER (from files_GN.cpp)

@<TRIPOS>ATOM
      1 N1         42.5171    6.3877    6.6173 N.am        1 UA3      -0.1592
      2 C2         42.9948    5.1293    6.7064 C.2         1 UA3       0.3328
      3 O2         43.3990    4.6111    7.7382 O.2         1 UA3      -0.3815
      4 N3         43.0802    4.3726    5.6174 N.am        1 UA3      -0.1865
      5 C4         42.7206    4.8283    4.4220 C.2         1 UA3       0.1822
      6 O4         42.8117    4.0809    3.4603 O.2         1 UA3      -0.4124
      7 C5         42.2370    6.0918    4.2821 C.2         1 UA3       0.0062
      8 C6         42.1432    6.8560    5.3849 C.2         1 UA3       0.0591
      9 O5         39.4382    9.7568    6.9549 O.3         1 UA3      -0.3924
     10 C5         40.1545   10.1481    8.1260 C.3         1 UA3       0.0734
     11 C4         41.3513    9.2111    8.4396 C.3         1 UA3       0.1182
     12 O4         41.1594    7.9112    7.8635 O.3         1 UA3      -0.3363
     13 C3         42.7107    9.7144    7.8979 C.3         1 UA3       0.1483
     14 O3         43.2444   10.6796    8.8314 O.3         1 UA3      -0.2675
     15 C2         43.5208    8.3982    7.7992 C.3         1 UA3       0.1433
     16 O2         44.3834    8.4145    6.6604 O.3         1 UA3      -0.3833
     17 C1         42.4475    7.2686    7.7790 C.3         1 UA3       0.2062
     18 O3P        44.8384   12.3554    9.5181 O.co2       1 UA3      -0.5537
     19 P          44.4826   11.5156    8.3996 P.3         1 UA3       0.2013
     20 O1P        44.1830   12.3800    7.2843 O.co2       1 UA3      -0.5537
     21 O2P        45.6350   10.7017    8.1006 O.co2       1 UA3      -0.5537
     22 H1         43.4151    3.4635    5.6885 H           1 UA3       0.2259
     23 H2         41.9720    6.4504    3.3964 H           1 UA3       0.0258
     24 H3         41.8039    7.7908    5.2864 H           1 UA3       0.1178
     25 H4         40.1263    9.6955    6.2386 H           1 UA3       0.2095
     26 H5         39.4487   10.1210    8.9637 H           1 UA3       0.0584
     27 H6         40.5127   11.1871    7.9996 H           1 UA3       0.0584
     28 H7         41.4193    9.0962    9.5324 H           1 UA3       0.0650
     29 H8         42.5516   10.1359    6.9007 H           1 UA3       0.0704
     30 H9         44.1502    8.2919    8.6886 H           1 UA3       0.0680
     31 H10        44.8576    7.5647    6.6930 H           1 UA3       0.2101
     32 H11        42.5457    6.7046    8.7155 H           1 UA3       0.0997
@<TRIPOS>BOND
     1     1     2  am
     2     1     8   1
     3    17     1   1
     4     2     3   2
     5     2     4  am
     6     4     5  am
     7     5     6   2
     8     7     5   1
     9     8     7   2
    10    10     9   1
    11    11    10   1
    12    12    11   1
    13    11    13   1
    14    12    17   1
    15    13    14   1
    16    13    15   1
    17    14    19   1
    18    15    16   1
    19    15    17   1
    20    19    18  ar
    21    19    20  ar
    22    19    21  ar
    23     4    22   1
    24     7    23   1
    25     8    24   1
    26     9    25   1
    27    10    26   1
    28    10    27   1
    29    11    28   1
    30    13    29   1
    31    15    30   1
    32    16    31   1
    33    17    32   1
@<TRIPOS>SUBSTRUCTURE
     1  UA3      2

