@<TRIPOS>MOLECULE
1w4o_ligand_027
    32    33
SMALL
GAST_HUCK
****
This file was generated by PARSER (from files_GN.cpp)

@<TRIPOS>ATOM
      1 N1         45.1293    5.8581    7.3799 N.am        1 UA3      -0.1592
      2 C2         46.1023    6.3206    6.5589 C.2         1 UA3       0.3328
      3 O2         45.9020    6.7736    5.4410 O.2         1 UA3      -0.3815
      4 N3         47.3752    6.3099    6.9490 N.am        1 UA3      -0.1865
      5 C4         47.7328    5.8737    8.1550 C.2         1 UA3       0.1822
      6 O4         48.9158    5.8988    8.4651 O.2         1 UA3      -0.4124
      7 C5         46.7911    5.4196    9.0227 C.2         1 UA3       0.0062
      8 C6         45.5046    5.4202    8.6269 C.2         1 UA3       0.0591
      9 O5         42.8416    6.5074    3.0643 O.3         1 UA3      -0.3924
     10 C5         42.0133    7.1605    4.0278 C.3         1 UA3       0.0734
     11 C4         42.1648    6.5512    5.4550 C.3         1 UA3       0.1182
     12 O4         43.4513    5.9395    5.6143 O.3         1 UA3      -0.3363
     13 C3         42.0883    7.5768    6.6117 C.3         1 UA3       0.1483
     14 O3         40.7049    7.9276    6.8579 O.3         1 UA3      -0.2675
     15 C2         42.8231    6.8342    7.7491 C.3         1 UA3       0.1433
     16 O2         43.5575    7.7446    8.5737 O.3         1 UA3      -0.3833
     17 C1         43.7153    5.7903    7.0225 C.3         1 UA3       0.2062
     18 O3P        40.4014    8.1637    9.3187 O.co2       1 UA3      -0.5537
     19 P          40.3832    8.8697    8.0592 P.3         1 UA3       0.2013
     20 O1P        39.0287    9.3308    7.8767 O.co2       1 UA3      -0.5537
     21 O2P        41.2190   10.0448    8.1454 O.co2       1 UA3      -0.5537
     22 H1         48.0570    6.6330    6.3394 H           1 UA3       0.2259
     23 H2         47.0464    5.0939    9.9280 H           1 UA3       0.0258
     24 H3         44.8201    5.0839    9.2702 H           1 UA3       0.1178
     25 H4         42.5523    5.5688    3.0457 H           1 UA3       0.2095
     26 H5         40.9693    7.0849    3.6994 H           1 UA3       0.0584
     27 H6         42.2933    8.2191    4.0125 H           1 UA3       0.0584
     28 H7         41.3916    5.7832    5.5811 H           1 UA3       0.0650
     29 H8         42.6679    8.4674    6.3310 H           1 UA3       0.0704
     30 H9         42.0944    6.3041    8.3710 H           1 UA3       0.0680
     31 H10        42.8773    8.2785    9.0303 H           1 UA3       0.2101
     32 H11        43.3504    4.7850    7.2685 H           1 UA3       0.0997
@<TRIPOS>BOND
     1     1     2  am
     2     1     8   1
     3    17     1   1
     4     2     3   2
     5     2     4  am
     6     4     5  am
     7     5     6   2
     8     7     5   1
     9     8     7   2
    10    10     9   1
    11    11    10   1
    12    12    11   1
    13    11    13   1
    14    12    17   1
    15    13    14   1
    16    13    15   1
    17    14    19   1
    18    15    16   1
    19    15    17   1
    20    19    18  ar
    21    19    20  ar
    22    19    21  ar
    23     4    22   1
    24     7    23   1
    25     8    24   1
    26     9    25   1
    27    10    26   1
    28    10    27   1
    29    11    28   1
    30    13    29   1
    31    15    30   1
    32    16    31   1
    33    17    32   1
@<TRIPOS>SUBSTRUCTURE
     1  UA3      2

