@<TRIPOS>MOLECULE
1w4o_ligand_063
    32    33
SMALL
GAST_HUCK
****
This file was generated by PARSER (from files_GN.cpp)

@<TRIPOS>ATOM
      1 N1         42.8671    8.8554   10.7300 N.am        1 UA3      -0.1592
      2 C2         43.3850    9.9739   10.1757 C.2         1 UA3       0.3328
      3 O2         44.0673    9.9750    9.1609 O.2         1 UA3      -0.3815
      4 N3         43.1651   11.1624   10.7355 N.am        1 UA3      -0.1865
      5 C4         42.4218   11.2917   11.8290 C.2         1 UA3       0.1822
      6 O4         42.2686   12.4041   12.3114 O.2         1 UA3      -0.4124
      7 C5         41.8348   10.1999   12.3899 C.2         1 UA3       0.0062
      8 C6         42.0686    8.9934   11.8330 C.2         1 UA3       0.0591
      9 O5         46.9560    6.4551    8.6692 O.3         1 UA3      -0.3924
     10 C5         45.8128    6.6026    7.8311 C.3         1 UA3       0.0734
     11 C4         44.5045    6.4720    8.6510 C.3         1 UA3       0.1182
     12 O4         44.4864    7.3677    9.7779 O.3         1 UA3      -0.3363
     13 C3         43.2400    6.8701    7.8523 C.3         1 UA3       0.1483
     14 O3         42.9042    6.0169    6.7345 O.3         1 UA3      -0.2675
     15 C2         42.2134    7.1550    8.9684 C.3         1 UA3       0.1433
     16 O2         41.2881    8.1760    8.5880 O.3         1 UA3      -0.3833
     17 C1         43.1095    7.5258   10.1860 C.3         1 UA3       0.2062
     18 O3P        42.4943    3.9311    5.6317 O.co2       1 UA3      -0.5537
     19 P          42.2823    4.6047    6.8932 P.3         1 UA3       0.2013
     20 O1P        40.8467    4.6639    7.0774 O.co2       1 UA3      -0.5537
     21 O2P        42.8829    3.7621    7.8997 O.co2       1 UA3      -0.5537
     22 H1         43.5625   11.9545   10.3405 H           1 UA3       0.2259
     23 H2         41.2349   10.2840   13.1808 H           1 UA3       0.0258
     24 H3         41.6197    8.2024   12.2404 H           1 UA3       0.1178
     25 H4         46.9093    7.2177    9.2864 H           1 UA3       0.2095
     26 H5         45.8374    5.8243    7.0661 H           1 UA3       0.0584
     27 H6         45.8675    7.5781    7.3435 H           1 UA3       0.0584
     28 H7         44.4310    5.4443    9.0226 H           1 UA3       0.0650
     29 H8         43.4516    7.8355    7.3808 H           1 UA3       0.0704
     30 H9         41.6442    6.2513    9.1970 H           1 UA3       0.0680
     31 H10        40.8275    7.8216    7.7984 H           1 UA3       0.2101
     32 H11        42.9535    6.7646   10.9608 H           1 UA3       0.0997
@<TRIPOS>BOND
     1     1     2  am
     2     1     8   1
     3    17     1   1
     4     2     3   2
     5     2     4  am
     6     4     5  am
     7     5     6   2
     8     7     5   1
     9     8     7   2
    10    10     9   1
    11    11    10   1
    12    12    11   1
    13    11    13   1
    14    12    17   1
    15    13    14   1
    16    13    15   1
    17    14    19   1
    18    15    16   1
    19    15    17   1
    20    19    18  ar
    21    19    20  ar
    22    19    21  ar
    23     4    22   1
    24     7    23   1
    25     8    24   1
    26     9    25   1
    27    10    26   1
    28    10    27   1
    29    11    28   1
    30    13    29   1
    31    15    30   1
    32    16    31   1
    33    17    32   1
@<TRIPOS>SUBSTRUCTURE
     1  UA3      2

