@<TRIPOS>MOLECULE
1w4o_ligand_060
    32    33
SMALL
GAST_HUCK
****
This file was generated by PARSER (from files_GN.cpp)

@<TRIPOS>ATOM
      1 N1         43.1031    6.7429    5.9318 N.am        1 UA3      -0.1592
      2 C2         42.9226    6.9469    4.6081 C.2         1 UA3       0.3328
      3 O2         42.9302    8.0498    4.0790 O.2         1 UA3      -0.3815
      4 N3         42.6735    5.9181    3.7947 N.am        1 UA3      -0.1865
      5 C4         42.6641    4.6701    4.2455 C.2         1 UA3       0.1822
      6 O4         42.4383    3.7667    3.4594 O.2         1 UA3      -0.4124
      7 C5         42.8999    4.4108    5.5565 C.2         1 UA3       0.0062
      8 C6         43.1034    5.4490    6.3857 C.2         1 UA3       0.0591
      9 O5         41.5735    7.5807   11.0230 O.3         1 UA3      -0.3924
     10 C5         42.9101    7.6459   10.5188 C.3         1 UA3       0.0734
     11 C4         43.0365    8.3510    9.1325 C.3         1 UA3       0.1182
     12 O4         43.6616    7.4743    8.1899 O.3         1 UA3      -0.3363
     13 C3         41.7217    8.8026    8.4603 C.3         1 UA3       0.1483
     14 O3         41.3039   10.0236    9.1085 O.3         1 UA3      -0.2675
     15 C2         42.1312    8.8560    6.9811 C.3         1 UA3       0.1433
     16 O2         41.0188    8.5563    6.1401 O.3         1 UA3      -0.3833
     17 C1         43.3186    7.8685    6.8439 C.3         1 UA3       0.2062
     18 O3P        39.1338   10.0430    7.8048 O.co2       1 UA3      -0.5537
     19 P          40.0921   10.8233    8.5675 P.3         1 UA3       0.2013
     20 O1P        40.5472   11.9240    7.7554 O.co2       1 UA3      -0.5537
     21 O2P        39.3866   11.3991    9.6872 O.co2       1 UA3      -0.5537
     22 H1         42.4898    6.0825    2.8553 H           1 UA3       0.2259
     23 H2         42.9417    3.4783    5.8987 H           1 UA3       0.0258
     24 H3         43.2659    5.2424    7.3435 H           1 UA3       0.1178
     25 H4         41.6342    7.0556   11.8510 H           1 UA3       0.2095
     26 H5         43.2899    6.6208   10.4538 H           1 UA3       0.0584
     27 H6         43.5165    8.1769   11.2619 H           1 UA3       0.0584
     28 H7         43.6916    9.2240    9.2455 H           1 UA3       0.0650
     29 H8         40.9578    8.0337    8.6081 H           1 UA3       0.0704
     30 H9         42.4777    9.8580    6.7306 H           1 UA3       0.0680
     31 H10        40.5757    9.4054    5.9471 H           1 UA3       0.2101
     32 H11        44.1914    8.4191    6.4761 H           1 UA3       0.0997
@<TRIPOS>BOND
     1     1     2  am
     2     1     8   1
     3    17     1   1
     4     2     3   2
     5     2     4  am
     6     4     5  am
     7     5     6   2
     8     7     5   1
     9     8     7   2
    10    10     9   1
    11    11    10   1
    12    12    11   1
    13    11    13   1
    14    12    17   1
    15    13    14   1
    16    13    15   1
    17    14    19   1
    18    15    16   1
    19    15    17   1
    20    19    18  ar
    21    19    20  ar
    22    19    21  ar
    23     4    22   1
    24     7    23   1
    25     8    24   1
    26     9    25   1
    27    10    26   1
    28    10    27   1
    29    11    28   1
    30    13    29   1
    31    15    30   1
    32    16    31   1
    33    17    32   1
@<TRIPOS>SUBSTRUCTURE
     1  UA3      2

