@<TRIPOS>MOLECULE
1w4o_ligand_045
    32    33
SMALL
GAST_HUCK
****
This file was generated by PARSER (from files_GN.cpp)

@<TRIPOS>ATOM
      1 N1         41.1043    7.2689    9.0636 N.am        1 UA3      -0.1592
      2 C2         40.7261    8.5548    8.8691 C.2         1 UA3       0.3328
      3 O2         41.1587    9.4956    9.5225 O.2         1 UA3      -0.3815
      4 N3         39.8412    8.8701    7.9313 N.am        1 UA3      -0.1865
      5 C4         39.3078    7.9432    7.1392 C.2         1 UA3       0.1822
      6 O4         38.4701    8.2709    6.3143 O.2         1 UA3      -0.4124
      7 C5         39.7146    6.6443    7.2400 C.2         1 UA3       0.0062
      8 C6         40.6170    6.3296    8.1948 C.2         1 UA3       0.0591
      9 O5         46.3155    6.3862    9.3688 O.3         1 UA3      -0.3924
     10 C5         45.3031    5.3870    9.3167 C.3         1 UA3       0.0734
     11 C4         44.0886    5.8033   10.1729 C.3         1 UA3       0.1182
     12 O4         43.3713    6.8801    9.5529 O.3         1 UA3      -0.3363
     13 C3         43.0375    4.6925   10.3529 C.3         1 UA3       0.1483
     14 O3         43.5591    3.6798   11.2440 O.3         1 UA3      -0.2675
     15 C2         41.8566    5.5448   10.8549 C.3         1 UA3       0.1433
     16 O2         40.6019    4.9124   10.6355 O.3         1 UA3      -0.3833
     17 C1         42.0480    6.9033   10.1176 C.3         1 UA3       0.2062
     18 O3P        43.6762    1.2914   11.6219 O.co2       1 UA3      -0.5537
     19 P          42.7420    2.3882   11.4878 P.3         1 UA3       0.2013
     20 O1P        41.8162    2.0233   10.4376 O.co2       1 UA3      -0.5537
     21 O2P        42.0290    2.4630   12.7446 O.co2       1 UA3      -0.5537
     22 H1         39.5862    9.8046    7.8141 H           1 UA3       0.2259
     23 H2         39.3652    5.9584    6.6101 H           1 UA3       0.0258
     24 H3         40.9211    5.3842    8.2577 H           1 UA3       0.1178
     25 H4         46.6158    6.3967   10.3051 H           1 UA3       0.2095
     26 H5         45.7222    4.4533    9.6902 H           1 UA3       0.0584
     27 H6         45.0003    5.2431    8.2764 H           1 UA3       0.0584
     28 H7         44.4559    6.1273   11.1517 H           1 UA3       0.0650
     29 H8         42.8101    4.2666    9.3752 H           1 UA3       0.0704
     30 H9         41.9682    5.6967   11.9385 H           1 UA3       0.0680
     31 H10        40.6014    4.1621   11.2783 H           1 UA3       0.2101
     32 H11        42.0749    7.6692   10.9014 H           1 UA3       0.0997
@<TRIPOS>BOND
     1     1     2  am
     2     1     8   1
     3    17     1   1
     4     2     3   2
     5     2     4  am
     6     4     5  am
     7     5     6   2
     8     7     5   1
     9     8     7   2
    10    10     9   1
    11    11    10   1
    12    12    11   1
    13    11    13   1
    14    12    17   1
    15    13    14   1
    16    13    15   1
    17    14    19   1
    18    15    16   1
    19    15    17   1
    20    19    18  ar
    21    19    20  ar
    22    19    21  ar
    23     4    22   1
    24     7    23   1
    25     8    24   1
    26     9    25   1
    27    10    26   1
    28    10    27   1
    29    11    28   1
    30    13    29   1
    31    15    30   1
    32    16    31   1
    33    17    32   1
@<TRIPOS>SUBSTRUCTURE
     1  UA3      2

