@<TRIPOS>MOLECULE
1w4o_ligand_054
    32    33
SMALL
GAST_HUCK
****
This file was generated by PARSER (from files_GN.cpp)

@<TRIPOS>ATOM
      1 N1         42.5449    9.9545    6.0259 N.am        1 UA3      -0.1592
      2 C2         41.6523   10.5186    5.1804 C.2         1 UA3       0.3328
      3 O2         41.0720   11.5699    5.4122 O.2         1 UA3      -0.3815
      4 N3         41.3540    9.9245    4.0243 N.am        1 UA3      -0.1865
      5 C4         41.9270    8.7784    3.6652 C.2         1 UA3       0.1822
      6 O4         41.6141    8.2588    2.6050 O.2         1 UA3      -0.4124
      7 C5         42.8461    8.1889    4.4775 C.2         1 UA3       0.0062
      8 C6         43.1460    8.7853    5.6472 C.2         1 UA3       0.0591
      9 O5         43.4725    8.0300   10.1688 O.3         1 UA3      -0.3924
     10 C5         44.2262    9.2220   10.3792 C.3         1 UA3       0.0734
     11 C4         43.7481   10.3630    9.4473 C.3         1 UA3       0.1182
     12 O4         43.8814    9.9396    8.0819 O.3         1 UA3      -0.3363
     13 C3         42.2722   10.8078    9.6634 C.3         1 UA3       0.1483
     14 O3         42.2620   12.1992   10.0717 O.3         1 UA3      -0.2675
     15 C2         41.6352   10.5248    8.2840 C.3         1 UA3       0.1433
     16 O2         41.0125    9.2381    8.2696 O.3         1 UA3      -0.3833
     17 C1         42.8365   10.5632    7.3182 C.3         1 UA3       0.2062
     18 O3P        40.4162   13.8376    9.9637 O.co2       1 UA3      -0.5537
     19 P          40.9865   12.7791   10.7582 P.3         1 UA3       0.2013
     20 O1P        41.3872   13.3666   12.0108 O.co2       1 UA3      -0.5537
     21 O2P        39.9716   11.7916   11.0290 O.co2       1 UA3      -0.5537
     22 H1         40.7036   10.3351    3.4323 H           1 UA3       0.2259
     23 H2         43.2878    7.3365    4.2164 H           1 UA3       0.0258
     24 H3         43.8122    8.3379    6.2330 H           1 UA3       0.1178
     25 H4         43.8446    7.3801   10.8023 H           1 UA3       0.2095
     26 H5         44.1244    9.5287   11.4233 H           1 UA3       0.0584
     27 H6         45.2801    9.0053   10.1850 H           1 UA3       0.0584
     28 H7         44.4255   11.2115    9.5923 H           1 UA3       0.0650
     29 H8         41.7999   10.1915   10.4365 H           1 UA3       0.0704
     30 H9         40.8897   11.2701    8.0072 H           1 UA3       0.0680
     31 H10        40.2249    9.3257    8.8469 H           1 UA3       0.2101
     32 H11        43.1427   11.6041    7.1491 H           1 UA3       0.0997
@<TRIPOS>BOND
     1     1     2  am
     2     1     8   1
     3    17     1   1
     4     2     3   2
     5     2     4  am
     6     4     5  am
     7     5     6   2
     8     7     5   1
     9     8     7   2
    10    10     9   1
    11    11    10   1
    12    12    11   1
    13    11    13   1
    14    12    17   1
    15    13    14   1
    16    13    15   1
    17    14    19   1
    18    15    16   1
    19    15    17   1
    20    19    18  ar
    21    19    20  ar
    22    19    21  ar
    23     4    22   1
    24     7    23   1
    25     8    24   1
    26     9    25   1
    27    10    26   1
    28    10    27   1
    29    11    28   1
    30    13    29   1
    31    15    30   1
    32    16    31   1
    33    17    32   1
@<TRIPOS>SUBSTRUCTURE
     1  UA3      2

