@<TRIPOS>MOLECULE
1w4o_ligand_049
    32    33
SMALL
GAST_HUCK
****
This file was generated by PARSER (from files_GN.cpp)

@<TRIPOS>ATOM
      1 N1         42.4390    6.5234    7.5120 N.am        1 UA3      -0.1592
      2 C2         43.1032    6.8039    6.3661 C.2         1 UA3       0.3328
      3 O2         43.4317    7.9351    6.0338 O.2         1 UA3      -0.3815
      4 N3         43.4141    5.8282    5.5126 N.am        1 UA3      -0.1865
      5 C4         43.0642    4.5640    5.7415 C.2         1 UA3       0.1822
      6 O4         43.3234    3.7131    4.9017 O.2         1 UA3      -0.4124
      7 C5         42.4346    4.2283    6.9031 C.2         1 UA3       0.0062
      8 C6         42.1393    5.2120    7.7760 C.2         1 UA3       0.0591
      9 O5         39.2797    9.9038    6.5403 O.3         1 UA3      -0.3924
     10 C5         40.1872   10.6253    7.3722 C.3         1 UA3       0.0734
     11 C4         40.9487    9.6358    8.2906 C.3         1 UA3       0.1182
     12 O4         40.9407    8.3205    7.7190 O.3         1 UA3      -0.3363
     13 C3         42.4579    9.9523    8.4684 C.3         1 UA3       0.1483
     14 O3         42.8033   11.1603    9.1944 O.3         1 UA3      -0.2675
     15 C2         43.0255    8.5859    8.9225 C.3         1 UA3       0.1433
     16 O2         44.3486    8.3555    8.4297 O.3         1 UA3      -0.3833
     17 C1         41.9608    7.5712    8.4037 C.3         1 UA3       0.2062
     18 O3P        42.4491   12.8631   10.8630 O.co2       1 UA3      -0.5537
     19 P          42.3340   11.4418   10.6547 P.3         1 UA3       0.2013
     20 O1P        43.2013   10.8359   11.6323 O.co2       1 UA3      -0.5537
     21 O2P        40.9620   11.0900   10.9123 O.co2       1 UA3      -0.5537
     22 H1         43.8875    6.0454    4.6941 H           1 UA3       0.2259
     23 H2         42.2165    3.2781    7.1127 H           1 UA3       0.0258
     24 H3         41.6929    4.9537    8.6278 H           1 UA3       0.1178
     25 H4         39.8504    9.4806    5.8633 H           1 UA3       0.2095
     26 H5         39.6141   11.3362    7.9790 H           1 UA3       0.0584
     27 H6         40.8758   11.1921    6.7312 H           1 UA3       0.0584
     28 H7         40.4360    9.6014    9.2598 H           1 UA3       0.0650
     29 H8         42.8558   10.1340    7.4623 H           1 UA3       0.0704
     30 H9         43.0599    8.5227   10.0139 H           1 UA3       0.0680
     31 H10        44.8978    9.0234    8.8822 H           1 UA3       0.2101
     32 H11        41.4690    7.1328    9.2861 H           1 UA3       0.0997
@<TRIPOS>BOND
     1     1     2  am
     2     1     8   1
     3    17     1   1
     4     2     3   2
     5     2     4  am
     6     4     5  am
     7     5     6   2
     8     7     5   1
     9     8     7   2
    10    10     9   1
    11    11    10   1
    12    12    11   1
    13    11    13   1
    14    12    17   1
    15    13    14   1
    16    13    15   1
    17    14    19   1
    18    15    16   1
    19    15    17   1
    20    19    18  ar
    21    19    20  ar
    22    19    21  ar
    23     4    22   1
    24     7    23   1
    25     8    24   1
    26     9    25   1
    27    10    26   1
    28    10    27   1
    29    11    28   1
    30    13    29   1
    31    15    30   1
    32    16    31   1
    33    17    32   1
@<TRIPOS>SUBSTRUCTURE
     1  UA3      2

