@<TRIPOS>MOLECULE
1w4o_ligand_043
    32    33
SMALL
GAST_HUCK
****
This file was generated by PARSER (from files_GN.cpp)

@<TRIPOS>ATOM
      1 N1         40.5404    9.0931    4.3642 N.am        1 UA3      -0.1592
      2 C2         41.5229    9.1919    3.4374 C.2         1 UA3       0.3328
      3 O2         42.3598    8.3234    3.2397 O.2         1 UA3      -0.3815
      4 N3         41.6091   10.2704    2.6603 N.am        1 UA3      -0.1865
      5 C4         40.7326   11.2641    2.7539 C.2         1 UA3       0.1822
      6 O4         40.8542   12.2343    2.0190 O.2         1 UA3      -0.4124
      7 C5         39.7103   11.1956    3.6510 C.2         1 UA3       0.0062
      8 C6         39.6276   10.1094    4.4445 C.2         1 UA3       0.0591
      9 O5         39.4193    6.8770    9.7202 O.3         1 UA3      -0.3924
     10 C5         39.3606    7.7562    8.6004 C.3         1 UA3       0.0734
     11 C4         39.7099    7.0379    7.2700 C.3         1 UA3       0.1182
     12 O4         39.3648    7.9100    6.1757 O.3         1 UA3      -0.3363
     13 C3         41.2150    6.6664    7.1315 C.3         1 UA3       0.1483
     14 O3         41.3230    5.3248    6.5869 O.3         1 UA3      -0.2675
     15 C2         41.6998    7.7243    6.1206 C.3         1 UA3       0.1433
     16 O2         42.0697    8.9308    6.7953 O.3         1 UA3      -0.3833
     17 C1         40.4512    7.9260    5.2336 C.3         1 UA3       0.2062
     18 O3P        42.7822    3.8020    5.4173 O.co2       1 UA3      -0.5537
     19 P          42.7221    4.6426    6.5903 P.3         1 UA3       0.2013
     20 O1P        42.9438    3.7712    7.7234 O.co2       1 UA3      -0.5537
     21 O2P        43.8446    5.5411    6.4688 O.co2       1 UA3      -0.5537
     22 H1         42.3322   10.3350    2.0189 H           1 UA3       0.2259
     23 H2         39.0360   11.9258    3.7184 H           1 UA3       0.0258
     24 H3         38.8783   10.0726    5.0972 H           1 UA3       0.1178
     25 H4         40.2072    6.3116    9.5759 H           1 UA3       0.2095
     26 H5         38.3462    8.1566    8.5376 H           1 UA3       0.0584
     27 H6         40.0428    8.5923    8.7729 H           1 UA3       0.0584
     28 H7         39.0844    6.1430    7.1949 H           1 UA3       0.0650
     29 H8         41.7446    6.7557    8.0924 H           1 UA3       0.0704
     30 H9         42.5550    7.3656    5.5411 H           1 UA3       0.0680
     31 H10        42.4302    9.5136    6.0960 H           1 UA3       0.2101
     32 H11        40.3149    7.0483    4.5941 H           1 UA3       0.0997
@<TRIPOS>BOND
     1     1     2  am
     2     1     8   1
     3    17     1   1
     4     2     3   2
     5     2     4  am
     6     4     5  am
     7     5     6   2
     8     7     5   1
     9     8     7   2
    10    10     9   1
    11    11    10   1
    12    12    11   1
    13    11    13   1
    14    12    17   1
    15    13    14   1
    16    13    15   1
    17    14    19   1
    18    15    16   1
    19    15    17   1
    20    19    18  ar
    21    19    20  ar
    22    19    21  ar
    23     4    22   1
    24     7    23   1
    25     8    24   1
    26     9    25   1
    27    10    26   1
    28    10    27   1
    29    11    28   1
    30    13    29   1
    31    15    30   1
    32    16    31   1
    33    17    32   1
@<TRIPOS>SUBSTRUCTURE
     1  UA3      2

