@<TRIPOS>MOLECULE
1w4o_ligand_032
    32    33
SMALL
GAST_HUCK
****
This file was generated by PARSER (from files_GN.cpp)

@<TRIPOS>ATOM
      1 N1         43.7307    5.9905    6.3945 N.am        1 UA3      -0.1592
      2 C2         43.0633    5.0133    5.7341 C.2         1 UA3       0.3328
      3 O2         42.9594    3.8565    6.1322 O.2         1 UA3      -0.3815
      4 N3         42.4962    5.2587    4.5569 N.am        1 UA3      -0.1865
      5 C4         42.5830    6.4553    3.9743 C.2         1 UA3       0.1822
      6 O4         42.0700    6.6227    2.8736 O.2         1 UA3      -0.4124
      7 C5         43.2806    7.4509    4.5736 C.2         1 UA3       0.0062
      8 C6         43.8669    7.1991    5.7559 C.2         1 UA3       0.0591
      9 O5         41.8064    3.3513    9.2083 O.3         1 UA3      -0.3924
     10 C5         42.6064    3.8742   10.2728 C.3         1 UA3       0.0734
     11 C4         43.6566    4.9118    9.7787 C.3         1 UA3       0.1182
     12 O4         43.9865    4.6375    8.4115 O.3         1 UA3      -0.3363
     13 C3         43.1897    6.3795    9.8215 C.3         1 UA3       0.1483
     14 O3         43.4952    7.0703   11.0487 O.3         1 UA3      -0.2675
     15 C2         44.0671    6.9910    8.7223 C.3         1 UA3       0.1433
     16 O2         43.4443    8.1618    8.1749 O.3         1 UA3      -0.3833
     17 C1         44.3396    5.8405    7.7134 C.3         1 UA3       0.2062
     18 O3P        41.1218    7.3494   11.7185 O.co2       1 UA3      -0.5537
     19 P          42.4600    7.1194   12.2001 P.3         1 UA3       0.2013
     20 O1P        42.7951    8.2849   12.9813 O.co2       1 UA3      -0.5537
     21 O2P        42.5175    6.0028   13.1165 O.co2       1 UA3      -0.5537
     22 H1         42.0296    4.5454    4.0987 H           1 UA3       0.2259
     23 H2         43.3540    8.3517    4.1565 H           1 UA3       0.0258
     24 H3         44.4157    7.9280    6.1640 H           1 UA3       0.1178
     25 H4         41.3076    4.1238    8.8574 H           1 UA3       0.2095
     26 H5         43.1129    3.0263   10.7686 H           1 UA3       0.0584
     27 H6         41.9374    4.3207   11.0134 H           1 UA3       0.0584
     28 H7         44.5608    4.7967   10.3840 H           1 UA3       0.0650
     29 H8         42.1433    6.4518    9.5207 H           1 UA3       0.0704
     30 H9         45.0327    7.3018    9.1669 H           1 UA3       0.0680
     31 H10        44.1640    8.8437    8.1253 H           1 UA3       0.2101
     32 H11        45.4189    5.7897    7.5556 H           1 UA3       0.0997
@<TRIPOS>BOND
     1     1     2  am
     2     1     8   1
     3    17     1   1
     4     2     3   2
     5     2     4  am
     6     4     5  am
     7     5     6   2
     8     7     5   1
     9     8     7   2
    10    10     9   1
    11    11    10   1
    12    12    11   1
    13    11    13   1
    14    12    17   1
    15    13    14   1
    16    13    15   1
    17    14    19   1
    18    15    16   1
    19    15    17   1
    20    19    18  ar
    21    19    20  ar
    22    19    21  ar
    23     4    22   1
    24     7    23   1
    25     8    24   1
    26     9    25   1
    27    10    26   1
    28    10    27   1
    29    11    28   1
    30    13    29   1
    31    15    30   1
    32    16    31   1
    33    17    32   1
@<TRIPOS>SUBSTRUCTURE
     1  UA3      2

