@<TRIPOS>MOLECULE
1w4o_ligand_008
    32    33
SMALL
GAST_HUCK
****
This file was generated by PARSER (from files_GN.cpp)

@<TRIPOS>ATOM
      1 N1         41.9134    5.5915    6.2502 N.am        1 UA3      -0.1592
      2 C2         40.7952    6.0737    5.6527 C.2         1 UA3       0.3328
      3 O2         39.6618    5.9261    6.0867 O.2         1 UA3      -0.3815
      4 N3         40.8738    6.7321    4.4952 N.am        1 UA3      -0.1865
      5 C4         42.0381    6.9381    3.8873 C.2         1 UA3       0.1822
      6 O4         42.0475    7.5014    2.8031 O.2         1 UA3      -0.4124
      7 C5         43.1876    6.4765    4.4446 C.2         1 UA3       0.0062
      8 C6         43.1067    5.7833    5.5965 C.2         1 UA3       0.0591
      9 O5         39.7653    6.6635   10.1082 O.3         1 UA3      -0.3924
     10 C5         39.9828    5.3355   10.5652 C.3         1 UA3       0.0734
     11 C4         40.9287    4.5422    9.6256 C.3         1 UA3       0.1182
     12 O4         40.6791    4.8843    8.2535 O.3         1 UA3      -0.3363
     13 C3         42.4380    4.7826    9.9105 C.3         1 UA3       0.1483
     14 O3         43.1498    3.5607   10.2277 O.3         1 UA3      -0.2675
     15 C2         42.9466    5.3345    8.5625 C.3         1 UA3       0.1433
     16 O2         43.0273    6.7601    8.5845 O.3         1 UA3      -0.3833
     17 C1         41.9133    4.8501    7.5138 C.3         1 UA3       0.2062
     18 O3P        43.8046    1.7719   11.7317 O.co2       1 UA3      -0.5537
     19 P          43.0002    2.9649   11.6643 P.3         1 UA3       0.2013
     20 O1P        41.6564    2.5710   12.0015 O.co2       1 UA3      -0.5537
     21 O2P        43.4993    3.8603   12.6758 O.co2       1 UA3      -0.5537
     22 H1         40.0638    7.0657    4.0757 H           1 UA3       0.2259
     23 H2         44.0678    6.6399    4.0155 H           1 UA3       0.0258
     24 H3         43.9549    5.4248    5.9691 H           1 UA3       0.1178
     25 H4         39.1047    6.5748    9.3856 H           1 UA3       0.2095
     26 H5         39.0154    4.8367   10.6345 H           1 UA3       0.0584
     27 H6         40.3988    5.3834   11.5738 H           1 UA3       0.0584
     28 H7         40.7044    3.4776    9.7401 H           1 UA3       0.0650
     29 H8         42.6041    5.5419   10.6865 H           1 UA3       0.0704
     30 H9         43.9440    4.9491    8.3335 H           1 UA3       0.0680
     31 H10        42.1122    7.0674    8.7507 H           1 UA3       0.2101
     32 H11        42.1277    3.7997    7.2802 H           1 UA3       0.0997
@<TRIPOS>BOND
     1     1     2  am
     2     1     8   1
     3    17     1   1
     4     2     3   2
     5     2     4  am
     6     4     5  am
     7     5     6   2
     8     7     5   1
     9     8     7   2
    10    10     9   1
    11    11    10   1
    12    12    11   1
    13    11    13   1
    14    12    17   1
    15    13    14   1
    16    13    15   1
    17    14    19   1
    18    15    16   1
    19    15    17   1
    20    19    18  ar
    21    19    20  ar
    22    19    21  ar
    23     4    22   1
    24     7    23   1
    25     8    24   1
    26     9    25   1
    27    10    26   1
    28    10    27   1
    29    11    28   1
    30    13    29   1
    31    15    30   1
    32    16    31   1
    33    17    32   1
@<TRIPOS>SUBSTRUCTURE
     1  UA3      2

