@<TRIPOS>MOLECULE
1w4o_ligand_024
    32    33
SMALL
GAST_HUCK
****
This file was generated by PARSER (from files_GN.cpp)

@<TRIPOS>ATOM
      1 N1         43.7030    6.0737    6.7921 N.am        1 UA3      -0.1592
      2 C2         44.3769    6.2259    5.6254 C.2         1 UA3       0.3328
      3 O2         43.8742    6.0951    4.5190 O.2         1 UA3      -0.3815
      4 N3         45.6654    6.5628    5.6360 N.am        1 UA3      -0.1865
      5 C4         46.3321    6.7595    6.7698 C.2         1 UA3       0.1822
      6 O4         47.5178    7.0393    6.7112 O.2         1 UA3      -0.4124
      7 C5         45.6792    6.6765    7.9628 C.2         1 UA3       0.0062
      8 C6         44.3663    6.3782    7.9520 C.2         1 UA3       0.0591
      9 O5         39.1312    8.6551    7.1846 O.3         1 UA3      -0.3924
     10 C5         39.7387    7.9101    8.2375 C.3         1 UA3       0.0734
     11 C4         40.3678    6.6067    7.7016 C.3         1 UA3       0.1182
     12 O4         41.5110    6.8871    6.8851 O.3         1 UA3      -0.3363
     13 C3         40.9005    5.6633    8.7976 C.3         1 UA3       0.1483
     14 O3         39.8056    4.9658    9.4507 O.3         1 UA3      -0.2675
     15 C2         41.7729    4.7374    7.9279 C.3         1 UA3       0.1433
     16 O2         42.8030    4.0362    8.6255 O.3         1 UA3      -0.3833
     17 C1         42.2952    5.6856    6.8027 C.3         1 UA3       0.2062
     18 O3P        38.1534    5.0893   11.2398 O.co2       1 UA3      -0.5537
     19 P          39.5643    5.2097   10.9740 P.3         1 UA3       0.2013
     20 O1P        39.9890    6.5122   11.4238 O.co2       1 UA3      -0.5537
     21 O2P        40.2401    4.1892   11.7310 O.co2       1 UA3      -0.5537
     22 H1         46.1371    6.6581    4.7938 H           1 UA3       0.2259
     23 H2         46.1524    6.8593    8.8179 H           1 UA3       0.0258
     24 H3         43.8832    6.3886    8.8206 H           1 UA3       0.1178
     25 H4         39.8509    8.8422    6.5469 H           1 UA3       0.2095
     26 H5         38.9649    7.6612    8.9635 H           1 UA3       0.0584
     27 H6         40.4972    8.5247    8.7250 H           1 UA3       0.0584
     28 H7         39.6172    6.0874    7.0967 H           1 UA3       0.0650
     29 H8         41.5516    6.2137    9.4842 H           1 UA3       0.0704
     30 H9         41.1220    3.9773    7.4852 H           1 UA3       0.0680
     31 H10        42.6944    4.2695    9.5700 H           1 UA3       0.2101
     32 H11        42.0276    5.1932    5.8594 H           1 UA3       0.0997
@<TRIPOS>BOND
     1     1     2  am
     2     1     8   1
     3    17     1   1
     4     2     3   2
     5     2     4  am
     6     4     5  am
     7     5     6   2
     8     7     5   1
     9     8     7   2
    10    10     9   1
    11    11    10   1
    12    12    11   1
    13    11    13   1
    14    12    17   1
    15    13    14   1
    16    13    15   1
    17    14    19   1
    18    15    16   1
    19    15    17   1
    20    19    18  ar
    21    19    20  ar
    22    19    21  ar
    23     4    22   1
    24     7    23   1
    25     8    24   1
    26     9    25   1
    27    10    26   1
    28    10    27   1
    29    11    28   1
    30    13    29   1
    31    15    30   1
    32    16    31   1
    33    17    32   1
@<TRIPOS>SUBSTRUCTURE
     1  UA3      2

