@<TRIPOS>MOLECULE
1w4o_ligand_062
    32    33
SMALL
GAST_HUCK
****
This file was generated by PARSER (from files_GN.cpp)

@<TRIPOS>ATOM
      1 N1         41.1854    6.1121    9.2906 N.am        1 UA3      -0.1592
      2 C2         41.3980    7.4307    9.4867 C.2         1 UA3       0.3328
      3 O2         42.1874    7.8738   10.3111 O.2         1 UA3      -0.3815
      4 N3         40.7098    8.3360    8.7880 N.am        1 UA3      -0.1865
      5 C4         39.7923    7.9699    7.8958 C.2         1 UA3       0.1822
      6 O4         39.1475    8.8336    7.3184 O.2         1 UA3      -0.4124
      7 C5         39.5416    6.6537    7.6717 C.2         1 UA3       0.0062
      8 C6         40.2386    5.7398    8.3733 C.2         1 UA3       0.0591
      9 O5         42.5713    0.4340   10.6257 O.3         1 UA3      -0.3924
     10 C5         41.9394    1.4300    9.8302 C.3         1 UA3       0.0734
     11 C4         42.1539    2.8388   10.4404 C.3         1 UA3       0.1182
     12 O4         41.9902    3.8357    9.4217 O.3         1 UA3      -0.3363
     13 C3         41.1367    3.2705   11.5253 C.3         1 UA3       0.1483
     14 O3         41.1909    2.7162   12.8603 O.3         1 UA3      -0.2675
     15 C2         41.1928    4.8162   11.4546 C.3         1 UA3       0.1433
     16 O2         39.8829    5.3844   11.5839 O.3         1 UA3      -0.3833
     17 C1         41.8727    5.1060   10.0867 C.3         1 UA3       0.2062
     18 O3P        43.2981    1.5016   13.2884 O.co2       1 UA3      -0.5537
     19 P          42.4972    2.6244   13.6988 P.3         1 UA3       0.2013
     20 O1P        42.0951    2.3405   15.0537 O.co2       1 UA3      -0.5537
     21 O2P        43.2977    3.8224   13.7384 O.co2       1 UA3      -0.5537
     22 H1         40.8689    9.2765    8.9470 H           1 UA3       0.2259
     23 H2         38.8407    6.3663    7.0255 H           1 UA3       0.0258
     24 H3         40.0273    4.7809    8.2222 H           1 UA3       0.1178
     25 H4         42.5068   -0.3905   10.1000 H           1 UA3       0.2095
     26 H5         40.8727    1.1975    9.7462 H           1 UA3       0.0584
     27 H6         42.3747    1.3970    8.8260 H           1 UA3       0.0584
     28 H7         43.1802    2.9013   10.8242 H           1 UA3       0.0650
     29 H8         40.1519    2.9786   11.1528 H           1 UA3       0.0704
     30 H9         41.8095    5.2307   12.2602 H           1 UA3       0.0680
     31 H10        39.5894    5.1442   12.4896 H           1 UA3       0.2101
     32 H11        42.9074    5.4234   10.2629 H           1 UA3       0.0997
@<TRIPOS>BOND
     1     1     2  am
     2     1     8   1
     3    17     1   1
     4     2     3   2
     5     2     4  am
     6     4     5  am
     7     5     6   2
     8     7     5   1
     9     8     7   2
    10    10     9   1
    11    11    10   1
    12    12    11   1
    13    11    13   1
    14    12    17   1
    15    13    14   1
    16    13    15   1
    17    14    19   1
    18    15    16   1
    19    15    17   1
    20    19    18  ar
    21    19    20  ar
    22    19    21  ar
    23     4    22   1
    24     7    23   1
    25     8    24   1
    26     9    25   1
    27    10    26   1
    28    10    27   1
    29    11    28   1
    30    13    29   1
    31    15    30   1
    32    16    31   1
    33    17    32   1
@<TRIPOS>SUBSTRUCTURE
     1  UA3      2

