@<TRIPOS>MOLECULE
1w4o_ligand_046
    32    33
SMALL
GAST_HUCK
****
This file was generated by PARSER (from files_GN.cpp)

@<TRIPOS>ATOM
      1 N1         41.3518    5.9016    5.9954 N.am        1 UA3      -0.1592
      2 C2         42.2073    4.8831    5.7507 C.2         1 UA3       0.3328
      3 O2         42.4727    4.0084    6.5645 O.2         1 UA3      -0.3815
      4 N3         42.8302    4.7998    4.5750 N.am        1 UA3      -0.1865
      5 C4         42.5953    5.6732    3.5980 C.2         1 UA3       0.1822
      6 O4         43.1963    5.5570    2.5460 O.2         1 UA3      -0.4124
      7 C5         41.6963    6.6744    3.7760 C.2         1 UA3       0.0062
      8 C6         41.0877    6.7815    4.9725 C.2         1 UA3       0.0591
      9 O5         39.3437    9.8284    7.1813 O.3         1 UA3      -0.3924
     10 C5         39.5216    9.3590    8.5139 C.3         1 UA3       0.0734
     11 C4         39.9107    7.8488    8.5966 C.3         1 UA3       0.1182
     12 O4         39.7942    7.1780    7.3324 O.3         1 UA3      -0.3363
     13 C3         41.3694    7.6226    9.0274 C.3         1 UA3       0.1483
     14 O3         41.4692    7.8460   10.4516 O.3         1 UA3      -0.2675
     15 C2         41.6365    6.1898    8.5362 C.3         1 UA3       0.1433
     16 O2         43.0316    6.0255    8.2698 O.3         1 UA3      -0.3833
     17 C1         40.6962    6.0431    7.2955 C.3         1 UA3       0.2062
     18 O3P        42.6486    8.6627   12.4077 O.co2       1 UA3      -0.5537
     19 P          42.8584    8.2142   11.0542 P.3         1 UA3       0.2013
     20 O1P        43.4527    9.3288   10.3564 O.co2       1 UA3      -0.5537
     21 O2P        43.7706    7.0969   11.0943 O.co2       1 UA3      -0.5537
     22 H1         43.4807    4.0966    4.4319 H           1 UA3       0.2259
     23 H2         41.4966    7.3163    3.0424 H           1 UA3       0.0258
     24 H3         40.4271    7.5167    5.0869 H           1 UA3       0.1178
     25 H4         40.2413    9.9350    6.8015 H           1 UA3       0.2095
     26 H5         38.5702    9.5086    9.0181 H           1 UA3       0.0584
     27 H6         40.2558   10.0050    9.0073 H           1 UA3       0.0584
     28 H7         39.2506    7.3424    9.3098 H           1 UA3       0.0650
     29 H8         41.9967    8.3185    8.4581 H           1 UA3       0.0704
     30 H9         41.3444    5.4683    9.3087 H           1 UA3       0.0680
     31 H10        43.4686    5.9981    9.1571 H           1 UA3       0.2101
     32 H11        40.0665    5.1568    7.4353 H           1 UA3       0.0997
@<TRIPOS>BOND
     1     1     2  am
     2     1     8   1
     3    17     1   1
     4     2     3   2
     5     2     4  am
     6     4     5  am
     7     5     6   2
     8     7     5   1
     9     8     7   2
    10    10     9   1
    11    11    10   1
    12    12    11   1
    13    11    13   1
    14    12    17   1
    15    13    14   1
    16    13    15   1
    17    14    19   1
    18    15    16   1
    19    15    17   1
    20    19    18  ar
    21    19    20  ar
    22    19    21  ar
    23     4    22   1
    24     7    23   1
    25     8    24   1
    26     9    25   1
    27    10    26   1
    28    10    27   1
    29    11    28   1
    30    13    29   1
    31    15    30   1
    32    16    31   1
    33    17    32   1
@<TRIPOS>SUBSTRUCTURE
     1  UA3      2

