@<TRIPOS>MOLECULE
1w4o_ligand_028
    32    33
SMALL
GAST_HUCK
****
This file was generated by PARSER (from files_GN.cpp)

@<TRIPOS>ATOM
      1 N1         41.4692    5.5392    6.7126 N.am        1 UA3      -0.1592
      2 C2         42.4884    4.9654    6.0220 C.2         1 UA3       0.3328
      3 O2         43.2249    4.0916    6.4569 O.2         1 UA3      -0.3815
      4 N3         42.7653    5.3780    4.7847 N.am        1 UA3      -0.1865
      5 C4         42.0599    6.3331    4.1787 C.2         1 UA3       0.1822
      6 O4         42.4432    6.7509    3.0933 O.2         1 UA3      -0.4124
      7 C5         40.9863    6.8757    4.8071 C.2         1 UA3       0.0062
      8 C6         40.6968    6.4713    6.0568 C.2         1 UA3       0.0591
      9 O5         41.2981    7.0128   12.5105 O.3         1 UA3      -0.3924
     10 C5         41.8811    6.9017   11.2096 C.3         1 UA3       0.0734
     11 C4         41.0136    6.0067   10.2781 C.3         1 UA3       0.1182
     12 O4         41.2498    6.3835    8.9129 O.3         1 UA3      -0.3363
     13 C3         41.3120    4.4854   10.3860 C.3         1 UA3       0.1483
     14 O3         40.0837    3.7780   10.6938 O.3         1 UA3      -0.2675
     15 C2         41.8123    4.1578    8.9625 C.3         1 UA3       0.1433
     16 O2         43.2389    4.2776    8.9322 O.3         1 UA3      -0.3833
     17 C1         41.0904    5.2165    8.0879 C.3         1 UA3       0.2062
     18 O3P        41.1033    1.8023   11.8564 O.co2       1 UA3      -0.5537
     19 P          40.0851    2.8234   11.9301 P.3         1 UA3       0.2013
     20 O1P        38.7992    2.1792   12.0112 O.co2       1 UA3      -0.5537
     21 O2P        40.2581    3.5986   13.1372 O.co2       1 UA3      -0.5537
     22 H1         43.5224    4.9810    4.3253 H           1 UA3       0.2259
     23 H2         40.4295    7.5542    4.3533 H           1 UA3       0.0258
     24 H3         39.9077    6.8834    6.5076 H           1 UA3       0.1178
     25 H4         41.3857    6.1163   12.8985 H           1 UA3       0.2095
     26 H5         41.9594    7.9120   10.7879 H           1 UA3       0.0584
     27 H6         42.8993    6.4978   11.3039 H           1 UA3       0.0584
     28 H7         39.9609    6.2085   10.4918 H           1 UA3       0.0650
     29 H8         42.1003    4.2978   11.1256 H           1 UA3       0.0704
     30 H9         41.5423    3.1455    8.6606 H           1 UA3       0.0680
     31 H10        43.4385    5.2241    9.1398 H           1 UA3       0.2101
     32 H11        40.0235    4.9447    8.0610 H           1 UA3       0.0997
@<TRIPOS>BOND
     1     1     2  am
     2     1     8   1
     3    17     1   1
     4     2     3   2
     5     2     4  am
     6     4     5  am
     7     5     6   2
     8     7     5   1
     9     8     7   2
    10    10     9   1
    11    11    10   1
    12    12    11   1
    13    11    13   1
    14    12    17   1
    15    13    14   1
    16    13    15   1
    17    14    19   1
    18    15    16   1
    19    15    17   1
    20    19    18  ar
    21    19    20  ar
    22    19    21  ar
    23     4    22   1
    24     7    23   1
    25     8    24   1
    26     9    25   1
    27    10    26   1
    28    10    27   1
    29    11    28   1
    30    13    29   1
    31    15    30   1
    32    16    31   1
    33    17    32   1
@<TRIPOS>SUBSTRUCTURE
     1  UA3      2

