@<TRIPOS>MOLECULE
1w4o_ligand_059
    32    33
SMALL
GAST_HUCK
****
This file was generated by PARSER (from files_GN.cpp)

@<TRIPOS>ATOM
      1 N1         43.4380    5.0122    8.5302 N.am        1 UA3      -0.1592
      2 C2         44.7512    5.2882    8.7122 C.2         1 UA3       0.3328
      3 O2         45.4027    4.9636    9.6934 O.2         1 UA3      -0.3815
      4 N3         45.4468    5.9157    7.7609 N.am        1 UA3      -0.1865
      5 C4         44.8968    6.2527    6.5976 C.2         1 UA3       0.1822
      6 O4         45.5801    6.8149    5.7557 O.2         1 UA3      -0.4124
      7 C5         43.5930    5.9571    6.3514 C.2         1 UA3       0.0062
      8 C6         42.8859    5.3400    7.3174 C.2         1 UA3       0.0591
      9 O5         39.5188    6.5633   10.7927 O.3         1 UA3      -0.3924
     10 C5         39.6738    5.3286   11.4827 C.3         1 UA3       0.0734
     11 C4         40.6139    4.3489   10.7229 C.3         1 UA3       0.1182
     12 O4         41.3546    5.0423    9.7025 O.3         1 UA3      -0.3363
     13 C3         41.6620    3.6008   11.6039 C.3         1 UA3       0.1483
     14 O3         41.4391    2.1677   11.5188 O.3         1 UA3      -0.2675
     15 C2         42.9917    4.0332   10.9404 C.3         1 UA3       0.1433
     16 O2         43.4795    5.2165   11.5786 O.3         1 UA3      -0.3833
     17 C1         42.5733    4.3097    9.4791 C.3         1 UA3       0.2062
     18 O3P        41.5349    1.5242   13.9060 O.co2       1 UA3      -0.5537
     19 P          42.0956    1.2595   12.6074 P.3         1 UA3       0.2013
     20 O1P        43.5299    1.3803   12.6847 O.co2       1 UA3      -0.5537
     21 O2P        41.8036   -0.1170   12.3056 O.co2       1 UA3      -0.5537
     22 H1         46.3849    6.1200    7.9144 H           1 UA3       0.2259
     23 H2         43.1699    6.1842    5.4778 H           1 UA3       0.0258
     24 H3         41.9345    5.1189    7.1196 H           1 UA3       0.1178
     25 H4         38.9258    6.3925   10.0313 H           1 UA3       0.2095
     26 H5         38.6903    4.8704   11.6232 H           1 UA3       0.0584
     27 H6         40.0734    5.5727   12.4685 H           1 UA3       0.0584
     28 H7         39.9736    3.6276   10.2020 H           1 UA3       0.0650
     29 H8         41.6161    3.9508   12.6413 H           1 UA3       0.0704
     30 H9         43.7526    3.2516   10.9933 H           1 UA3       0.0680
     31 H10        42.7647    5.8789   11.4773 H           1 UA3       0.2101
     32 H11        42.3264    3.3490    9.0082 H           1 UA3       0.0997
@<TRIPOS>BOND
     1     1     2  am
     2     1     8   1
     3    17     1   1
     4     2     3   2
     5     2     4  am
     6     4     5  am
     7     5     6   2
     8     7     5   1
     9     8     7   2
    10    10     9   1
    11    11    10   1
    12    12    11   1
    13    11    13   1
    14    12    17   1
    15    13    14   1
    16    13    15   1
    17    14    19   1
    18    15    16   1
    19    15    17   1
    20    19    18  ar
    21    19    20  ar
    22    19    21  ar
    23     4    22   1
    24     7    23   1
    25     8    24   1
    26     9    25   1
    27    10    26   1
    28    10    27   1
    29    11    28   1
    30    13    29   1
    31    15    30   1
    32    16    31   1
    33    17    32   1
@<TRIPOS>SUBSTRUCTURE
     1  UA3      2

