@<TRIPOS>MOLECULE
1w4o_ligand_056
    32    33
SMALL
GAST_HUCK
****
This file was generated by PARSER (from files_GN.cpp)

@<TRIPOS>ATOM
      1 N1         43.0734    5.9087    6.8114 N.am        1 UA3      -0.1592
      2 C2         42.1779    5.0799    6.2346 C.2         1 UA3       0.3328
      3 O2         41.2945    4.4983    6.8504 O.2         1 UA3      -0.3815
      4 N3         42.1887    4.8821    4.9134 N.am        1 UA3      -0.1865
      5 C4         43.0712    5.4990    4.1284 C.2         1 UA3       0.1822
      6 O4         42.9331    5.4401    2.9165 O.2         1 UA3      -0.4124
      7 C5         44.0504    6.2654    4.6790 C.2         1 UA3       0.0062
      8 C6         44.0608    6.4235    6.0123 C.2         1 UA3       0.0591
      9 O5         39.3344    5.1551    8.8596 O.3         1 UA3      -0.3924
     10 C5         39.8692    5.8198   10.0035 C.3         1 UA3       0.0734
     11 C4         41.2225    6.5161    9.7104 C.3         1 UA3       0.1182
     12 O4         42.1355    5.6154    9.0553 O.3         1 UA3      -0.3363
     13 C3         41.1327    7.7655    8.8101 C.3         1 UA3       0.1483
     14 O3         40.6854    8.9034    9.5812 O.3         1 UA3      -0.2675
     15 C2         42.5852    7.8560    8.3263 C.3         1 UA3       0.1433
     16 O2         42.6603    8.6293    7.1291 O.3         1 UA3      -0.3833
     17 C1         43.0175    6.3683    8.1967 C.3         1 UA3       0.2062
     18 O3P        39.1671    9.9565    7.9122 O.co2       1 UA3      -0.5537
     19 P          40.2657   10.1947    8.8116 P.3         1 UA3       0.2013
     20 O1P        41.3536   10.8587    8.1392 O.co2       1 UA3      -0.5537
     21 O2P        39.7929   11.1243    9.8055 O.co2       1 UA3      -0.5537
     22 H1         41.5047    4.3212    4.5033 H           1 UA3       0.2259
     23 H2         44.7503    6.6917    4.1184 H           1 UA3       0.0258
     24 H3         44.7940    6.9704    6.4042 H           1 UA3       0.1178
     25 H4         39.1795    5.8620    8.1939 H           1 UA3       0.2095
     26 H5         40.0097    5.0740   10.7870 H           1 UA3       0.0584
     27 H6         39.1389    6.5481   10.3536 H           1 UA3       0.0584
     28 H7         41.6621    6.8050   10.6693 H           1 UA3       0.0650
     29 H8         40.4697    7.5461    7.9624 H           1 UA3       0.0704
     30 H9         43.1869    8.3437    9.1041 H           1 UA3       0.0680
     31 H10        43.6150    8.7898    6.9752 H           1 UA3       0.2101
     32 H11        44.0170    6.2553    8.6390 H           1 UA3       0.0997
@<TRIPOS>BOND
     1     1     2  am
     2     1     8   1
     3    17     1   1
     4     2     3   2
     5     2     4  am
     6     4     5  am
     7     5     6   2
     8     7     5   1
     9     8     7   2
    10    10     9   1
    11    11    10   1
    12    12    11   1
    13    11    13   1
    14    12    17   1
    15    13    14   1
    16    13    15   1
    17    14    19   1
    18    15    16   1
    19    15    17   1
    20    19    18  ar
    21    19    20  ar
    22    19    21  ar
    23     4    22   1
    24     7    23   1
    25     8    24   1
    26     9    25   1
    27    10    26   1
    28    10    27   1
    29    11    28   1
    30    13    29   1
    31    15    30   1
    32    16    31   1
    33    17    32   1
@<TRIPOS>SUBSTRUCTURE
     1  UA3      2

