@<TRIPOS>MOLECULE
1w4o_ligand_011
    32    33
SMALL
GAST_HUCK
****
This file was generated by PARSER (from files_GN.cpp)

@<TRIPOS>ATOM
      1 N1         40.9192    4.7802    8.6670 N.am        1 UA3      -0.1592
      2 C2         41.9753    3.9785    8.9320 C.2         1 UA3       0.3328
      3 O2         42.8073    3.6351    8.1044 O.2         1 UA3      -0.3815
      4 N3         42.1737    3.5037   10.1644 N.am        1 UA3      -0.1865
      5 C4         41.3624    3.8147   11.1729 C.2         1 UA3       0.1822
      6 O4         41.6010    3.3770   12.2863 O.2         1 UA3      -0.4124
      7 C5         40.2832    4.6139   10.9568 C.2         1 UA3       0.0062
      8 C6         40.0775    5.0846    9.7105 C.2         1 UA3       0.0591
      9 O5         42.8342    6.3697    3.2230 O.3         1 UA3      -0.3924
     10 C5         42.7886    5.5643    4.4042 C.3         1 UA3       0.0734
     11 C4         41.5381    5.8473    5.2787 C.3         1 UA3       0.1182
     12 O4         41.4299    4.8305    6.2751 O.3         1 UA3      -0.3363
     13 C3         41.5808    7.1722    6.0710 C.3         1 UA3       0.1483
     14 O3         41.2743    8.2825    5.1838 O.3         1 UA3      -0.2675
     15 C2         40.6020    6.8732    7.2319 C.3         1 UA3       0.1433
     16 O2         41.0191    7.5421    8.4227 O.3         1 UA3      -0.3833
     17 C1         40.5947    5.3177    7.3434 C.3         1 UA3       0.2062
     18 O3P        40.7757   10.6435    4.7823 O.co2       1 UA3      -0.5537
     19 P          40.7659    9.6243    5.7996 P.3         1 UA3       0.2013
     20 O1P        41.5242   10.1096    6.9350 O.co2       1 UA3      -0.5537
     21 O2P        39.3836    9.4330    6.1944 O.co2       1 UA3      -0.5537
     22 H1         42.9396    2.9363   10.3469 H           1 UA3       0.2259
     23 H2         39.6586    4.8508   11.6966 H           1 UA3       0.0258
     24 H3         39.2870    5.6687    9.5635 H           1 UA3       0.1178
     25 H4         41.8870    6.4937    2.9768 H           1 UA3       0.2095
     26 H5         43.7046    5.7324    4.9753 H           1 UA3       0.0584
     27 H6         42.7695    4.5172    4.0906 H           1 UA3       0.0584
     28 H7         40.6497    5.8204    4.6445 H           1 UA3       0.0650
     29 H8         42.5939    7.3093    6.4797 H           1 UA3       0.0704
     30 H9         39.5956    7.2121    6.9670 H           1 UA3       0.0680
     31 H10        40.5530    8.4093    8.3913 H           1 UA3       0.2101
     32 H11        39.5773    4.9629    7.1010 H           1 UA3       0.0997
@<TRIPOS>BOND
     1     1     2  am
     2     1     8   1
     3    17     1   1
     4     2     3   2
     5     2     4  am
     6     4     5  am
     7     5     6   2
     8     7     5   1
     9     8     7   2
    10    10     9   1
    11    11    10   1
    12    12    11   1
    13    11    13   1
    14    12    17   1
    15    13    14   1
    16    13    15   1
    17    14    19   1
    18    15    16   1
    19    15    17   1
    20    19    18  ar
    21    19    20  ar
    22    19    21  ar
    23     4    22   1
    24     7    23   1
    25     8    24   1
    26     9    25   1
    27    10    26   1
    28    10    27   1
    29    11    28   1
    30    13    29   1
    31    15    30   1
    32    16    31   1
    33    17    32   1
@<TRIPOS>SUBSTRUCTURE
     1  UA3      2

