@<TRIPOS>MOLECULE
1w4o_ligand_026
    32    33
SMALL
GAST_HUCK
****
This file was generated by PARSER (from files_GN.cpp)

@<TRIPOS>ATOM
      1 N1         40.9694    9.2351    4.8313 N.am        1 UA3      -0.1592
      2 C2         41.3921    9.3457    3.5514 C.2         1 UA3       0.3328
      3 O2         42.3255    8.7020    3.0904 O.2         1 UA3      -0.3815
      4 N3         40.7777   10.1841    2.7145 N.am        1 UA3      -0.1865
      5 C4         39.7330   10.9175    3.0975 C.2         1 UA3       0.1822
      6 O4         39.2015   11.6575    2.2862 O.2         1 UA3      -0.4124
      7 C5         39.2712   10.8305    4.3738 C.2         1 UA3       0.0062
      8 C6         39.8975    9.9962    5.2211 C.2         1 UA3       0.0591
      9 O5         45.7326    6.2627    6.9422 O.3         1 UA3      -0.3924
     10 C5         45.0852    7.1529    6.0331 C.3         1 UA3       0.0734
     11 C4         43.5789    7.3008    6.3635 C.3         1 UA3       0.1182
     12 O4         43.0502    8.4702    5.7241 O.3         1 UA3      -0.3363
     13 C3         42.6749    6.1533    5.8495 C.3         1 UA3       0.1483
     14 O3         42.8264    4.8952    6.5585 O.3         1 UA3      -0.2675
     15 C2         41.2876    6.8399    5.6988 C.3         1 UA3       0.1433
     16 O2         40.6467    6.4342    4.4875 O.3         1 UA3      -0.3833
     17 C1         41.6188    8.3596    5.7967 C.3         1 UA3       0.2062
     18 O3P        42.7301    3.4081    8.4324 O.co2       1 UA3      -0.5537
     19 P          42.1576    4.6298    7.9410 P.3         1 UA3       0.2013
     20 O1P        40.7427    4.3785    7.8381 O.co2       1 UA3      -0.5537
     21 O2P        42.4270    5.6265    8.9426 O.co2       1 UA3      -0.5537
     22 H1         41.0980   10.2636    1.8016 H           1 UA3       0.2259
     23 H2         38.4980   11.3724    4.6788 H           1 UA3       0.0258
     24 H3         39.5597    9.9478    6.1556 H           1 UA3       0.1178
     25 H4         45.7328    6.7432    7.8017 H           1 UA3       0.2095
     26 H5         45.2213    6.7682    5.0178 H           1 UA3       0.0584
     27 H6         45.5745    8.1287    6.0978 H           1 UA3       0.0584
     28 H7         43.4755    7.4171    7.4462 H           1 UA3       0.0650
     29 H8         43.0193    5.9213    4.8295 H           1 UA3       0.0704
     30 H9         40.6194    6.5826    6.5194 H           1 UA3       0.0680
     31 H10        40.0376    7.1720    4.2565 H           1 UA3       0.2101
     32 H11        41.3595    8.6720    6.8171 H           1 UA3       0.0997
@<TRIPOS>BOND
     1     1     2  am
     2     1     8   1
     3    17     1   1
     4     2     3   2
     5     2     4  am
     6     4     5  am
     7     5     6   2
     8     7     5   1
     9     8     7   2
    10    10     9   1
    11    11    10   1
    12    12    11   1
    13    11    13   1
    14    12    17   1
    15    13    14   1
    16    13    15   1
    17    14    19   1
    18    15    16   1
    19    15    17   1
    20    19    18  ar
    21    19    20  ar
    22    19    21  ar
    23     4    22   1
    24     7    23   1
    25     8    24   1
    26     9    25   1
    27    10    26   1
    28    10    27   1
    29    11    28   1
    30    13    29   1
    31    15    30   1
    32    16    31   1
    33    17    32   1
@<TRIPOS>SUBSTRUCTURE
     1  UA3      2

