@<TRIPOS>MOLECULE
1w4o_ligand_044
    32    33
SMALL
GAST_HUCK
****
This file was generated by PARSER (from files_GN.cpp)

@<TRIPOS>ATOM
      1 N1         43.4381    7.2820    6.3772 N.am        1 UA3      -0.1592
      2 C2         43.2814    6.0800    5.7702 C.2         1 UA3       0.3328
      3 O2         43.6244    5.0200    6.2748 O.2         1 UA3      -0.3815
      4 N3         42.7350    6.0064    4.5594 N.am        1 UA3      -0.1865
      5 C4         42.3382    7.1003    3.9066 C.2         1 UA3       0.1822
      6 O4         41.8267    6.9848    2.8060 O.2         1 UA3      -0.4124
      7 C5         42.4729    8.3233    4.4762 C.2         1 UA3       0.0062
      8 C6         43.0124    8.3963    5.7071 C.2         1 UA3       0.0591
      9 O5         47.3958    5.2665    8.8411 O.3         1 UA3      -0.3924
     10 C5         46.2751    5.3007    9.7105 C.3         1 UA3       0.0734
     11 C4         45.2975    6.4513    9.3408 C.3         1 UA3       0.1182
     12 O4         45.1398    6.5763    7.9215 O.3         1 UA3      -0.3363
     13 C3         43.8495    6.2826    9.8671 C.3         1 UA3       0.1483
     14 O3         43.7888    6.7000   11.2537 O.3         1 UA3      -0.2675
     15 C2         43.0186    7.1256    8.8686 C.3         1 UA3       0.1433
     16 O2         41.8290    6.4400    8.4738 O.3         1 UA3      -0.3833
     17 C1         43.9997    7.4256    7.7129 C.3         1 UA3       0.2062
     18 O3P        41.3446    7.2136   11.3706 O.co2       1 UA3      -0.5537
     19 P          42.4324    6.5239   12.0045 P.3         1 UA3       0.2013
     20 O1P        42.5742    7.0904   13.3219 O.co2       1 UA3      -0.5537
     21 O2P        42.0853    5.1423   12.1845 O.co2       1 UA3      -0.5537
     22 H1         42.6141    5.1362    4.1461 H           1 UA3       0.2259
     23 H2         42.1542    9.1455    4.0168 H           1 UA3       0.0258
     24 H3         43.0864    9.3025    6.1304 H           1 UA3       0.1178
     25 H4         47.0275    5.0461    7.9572 H           1 UA3       0.2095
     26 H5         46.6418    5.4509   10.7236 H           1 UA3       0.0584
     27 H6         45.7761    4.3355    9.6608 H           1 UA3       0.0584
     28 H7         45.7244    7.3926    9.7195 H           1 UA3       0.0650
     29 H8         43.5790    5.2220    9.7669 H           1 UA3       0.0704
     30 H9         42.7109    8.0644    9.3310 H           1 UA3       0.0680
     31 H10        42.1193    5.5876    8.0815 H           1 UA3       0.2101
     32 H11        44.3740    8.4504    7.8500 H           1 UA3       0.0997
@<TRIPOS>BOND
     1     1     2  am
     2     1     8   1
     3    17     1   1
     4     2     3   2
     5     2     4  am
     6     4     5  am
     7     5     6   2
     8     7     5   1
     9     8     7   2
    10    10     9   1
    11    11    10   1
    12    12    11   1
    13    11    13   1
    14    12    17   1
    15    13    14   1
    16    13    15   1
    17    14    19   1
    18    15    16   1
    19    15    17   1
    20    19    18  ar
    21    19    20  ar
    22    19    21  ar
    23     4    22   1
    24     7    23   1
    25     8    24   1
    26     9    25   1
    27    10    26   1
    28    10    27   1
    29    11    28   1
    30    13    29   1
    31    15    30   1
    32    16    31   1
    33    17    32   1
@<TRIPOS>SUBSTRUCTURE
     1  UA3      2

