@<TRIPOS>MOLECULE
1w4o_ligand_053
    32    33
SMALL
GAST_HUCK
****
This file was generated by PARSER (from files_GN.cpp)

@<TRIPOS>ATOM
      1 N1         44.4134    7.6107    6.9192 N.am        1 UA3      -0.1592
      2 C2         45.3551    7.0487    6.1299 C.2         1 UA3       0.3328
      3 O2         45.1956    5.9870    5.5434 O.2         1 UA3      -0.3815
      4 N3         46.5346    7.6435    5.9633 N.am        1 UA3      -0.1865
      5 C4         46.8244    8.7931    6.5664 C.2         1 UA3       0.1822
      6 O4         47.9159    9.3039    6.3710 O.2         1 UA3      -0.4124
      7 C5         45.9141    9.3792    7.3919 C.2         1 UA3       0.0062
      8 C6         44.7220    8.7775    7.5631 C.2         1 UA3       0.0591
      9 O5         39.1099    8.5760    7.2676 O.3         1 UA3      -0.3924
     10 C5         39.8315    8.0329    8.3729 C.3         1 UA3       0.0734
     11 C4         40.9635    7.0939    7.8915 C.3         1 UA3       0.1182
     12 O4         42.0163    7.8630    7.2835 O.3         1 UA3      -0.3363
     13 C3         41.6745    6.2878    9.0063 C.3         1 UA3       0.1483
     14 O3         40.9218    5.0929    9.3300 O.3         1 UA3      -0.2675
     15 C2         43.0869    6.0674    8.4037 C.3         1 UA3       0.1433
     16 O2         44.1010    6.3545    9.3718 O.3         1 UA3      -0.3833
     17 C1         43.1293    6.9664    7.1432 C.3         1 UA3       0.2062
     18 O3P        42.0867    4.7977   11.5535 O.co2       1 UA3      -0.5537
     19 P          41.5031    4.1321   10.4171 P.3         1 UA3       0.2013
     20 O1P        42.4837    3.2603    9.8241 O.co2       1 UA3      -0.5537
     21 O2P        40.4399    3.2896   10.8992 O.co2       1 UA3      -0.5537
     22 H1         47.1972    7.2313    5.3863 H           1 UA3       0.2259
     23 H2         46.1261   10.2246    7.8699 H           1 UA3       0.0258
     24 H3         44.0723    9.1946    8.1897 H           1 UA3       0.1178
     25 H4         39.7923    8.8740    6.6289 H           1 UA3       0.2095
     26 H5         39.1274    7.4781    8.9978 H           1 UA3       0.0584
     27 H6         40.2465    8.8554    8.9597 H           1 UA3       0.0584
     28 H7         40.5371    6.4086    7.1456 H           1 UA3       0.0650
     29 H8         41.7403    6.9297    9.8944 H           1 UA3       0.0704
     30 H9         43.2234    5.0298    8.0901 H           1 UA3       0.0680
     31 H10        43.9549    7.2852    9.6473 H           1 UA3       0.2101
     32 H11        42.8779    6.3548    6.2654 H           1 UA3       0.0997
@<TRIPOS>BOND
     1     1     2  am
     2     1     8   1
     3    17     1   1
     4     2     3   2
     5     2     4  am
     6     4     5  am
     7     5     6   2
     8     7     5   1
     9     8     7   2
    10    10     9   1
    11    11    10   1
    12    12    11   1
    13    11    13   1
    14    12    17   1
    15    13    14   1
    16    13    15   1
    17    14    19   1
    18    15    16   1
    19    15    17   1
    20    19    18  ar
    21    19    20  ar
    22    19    21  ar
    23     4    22   1
    24     7    23   1
    25     8    24   1
    26     9    25   1
    27    10    26   1
    28    10    27   1
    29    11    28   1
    30    13    29   1
    31    15    30   1
    32    16    31   1
    33    17    32   1
@<TRIPOS>SUBSTRUCTURE
     1  UA3      2

