@<TRIPOS>MOLECULE
1w4o_ligand_009
    32    33
SMALL
GAST_HUCK
****
This file was generated by PARSER (from files_GN.cpp)

@<TRIPOS>ATOM
      1 N1         41.3409    7.6262    6.6103 N.am        1 UA3      -0.1592
      2 C2         40.4136    8.2300    5.8289 C.2         1 UA3       0.3328
      3 O2         39.3579    8.6807    6.2619 O.2         1 UA3      -0.3815
      4 N3         40.6156    8.3531    4.5183 N.am        1 UA3      -0.1865
      5 C4         41.7304    7.9175    3.9353 C.2         1 UA3       0.1822
      6 O4         41.8453    8.0162    2.7190 O.2         1 UA3      -0.4124
      7 C5         42.7029    7.3353    4.6830 C.2         1 UA3       0.0062
      8 C6         42.4925    7.1847    6.0037 C.2         1 UA3       0.0591
      9 O5         43.5707    4.4875    9.4322 O.3         1 UA3      -0.3924
     10 C5         43.0593    5.3740   10.4291 C.3         1 UA3       0.0734
     11 C4         41.8998    6.2477    9.8880 C.3         1 UA3       0.1182
     12 O4         42.3169    7.0522    8.7797 O.3         1 UA3      -0.3363
     13 C3         40.6901    5.4578    9.3413 C.3         1 UA3       0.1483
     14 O3         39.8566    4.7135   10.2549 O.3         1 UA3      -0.2675
     15 C2         39.9892    6.5006    8.4556 C.3         1 UA3       0.1433
     16 O2         39.3257    5.8713    7.3570 O.3         1 UA3      -0.3833
     17 C1         41.1401    7.4758    8.0519 C.3         1 UA3       0.2062
     18 O3P        39.7420    4.0683   12.5576 O.co2       1 UA3      -0.5537
     19 P          39.4460    5.1731   11.6790 P.3         1 UA3       0.2013
     20 O1P        38.0081    5.3408   11.7203 O.co2       1 UA3      -0.5537
     21 O2P        40.0474    6.3623   12.2397 O.co2       1 UA3      -0.5537
     22 H1         39.9256    8.7454    3.9607 H           1 UA3       0.2259
     23 H2         43.5543    7.0250    4.2637 H           1 UA3       0.0258
     24 H3         43.2118    6.7474    6.5297 H           1 UA3       0.1178
     25 H4         43.8082    5.0635    8.6762 H           1 UA3       0.2095
     26 H5         43.8838    6.0025   10.7787 H           1 UA3       0.0584
     27 H6         42.7053    4.7721   11.2720 H           1 UA3       0.0584
     28 H7         41.5894    6.9322   10.6821 H           1 UA3       0.0650
     29 H8         41.0987    4.6928    8.6713 H           1 UA3       0.0704
     30 H9         39.2509    7.0446    9.0524 H           1 UA3       0.0680
     31 H10        38.3685    5.9514    7.5469 H           1 UA3       0.2101
     32 H11        40.9037    8.4693    8.4474 H           1 UA3       0.0997
@<TRIPOS>BOND
     1     1     2  am
     2     1     8   1
     3    17     1   1
     4     2     3   2
     5     2     4  am
     6     4     5  am
     7     5     6   2
     8     7     5   1
     9     8     7   2
    10    10     9   1
    11    11    10   1
    12    12    11   1
    13    11    13   1
    14    12    17   1
    15    13    14   1
    16    13    15   1
    17    14    19   1
    18    15    16   1
    19    15    17   1
    20    19    18  ar
    21    19    20  ar
    22    19    21  ar
    23     4    22   1
    24     7    23   1
    25     8    24   1
    26     9    25   1
    27    10    26   1
    28    10    27   1
    29    11    28   1
    30    13    29   1
    31    15    30   1
    32    16    31   1
    33    17    32   1
@<TRIPOS>SUBSTRUCTURE
     1  UA3      2

