@<TRIPOS>MOLECULE
1w4o_ligand_017
    32    33
SMALL
GAST_HUCK
****
This file was generated by PARSER (from files_GN.cpp)

@<TRIPOS>ATOM
      1 N1         41.9901    6.1079    6.6110 N.am        1 UA3      -0.1592
      2 C2         40.9188    6.4574    5.8646 C.2         1 UA3       0.3328
      3 O2         39.7798    6.5438    6.3044 O.2         1 UA3      -0.3815
      4 N3         41.0577    6.7407    4.5680 N.am        1 UA3      -0.1865
      5 C4         42.2444    6.6773    3.9716 C.2         1 UA3       0.1822
      6 O4         42.3127    6.9480    2.7823 O.2         1 UA3      -0.4124
      7 C5         43.3531    6.3209    4.6772 C.2         1 UA3       0.0062
      8 C6         43.2133    6.0422    5.9884 C.2         1 UA3       0.0591
      9 O5         45.5546    6.8318    9.9871 O.3         1 UA3      -0.3924
     10 C5         44.8404    5.6229    9.7494 C.3         1 UA3       0.0734
     11 C4         43.3101    5.8293    9.9055 C.3         1 UA3       0.1182
     12 O4         42.8590    6.6031    8.7805 O.3         1 UA3      -0.3363
     13 C3         42.5030    4.5028    9.9356 C.3         1 UA3       0.1483
     14 O3         41.5169    4.3823   10.9975 O.3         1 UA3      -0.2675
     15 C2         42.0136    4.3734    8.4749 C.3         1 UA3       0.1433
     16 O2         42.9893    3.6502    7.7182 O.3         1 UA3      -0.3833
     17 C1         41.8884    5.8515    8.0387 C.3         1 UA3       0.2062
     18 O3P        40.1910    6.5146   11.0513 O.co2       1 UA3      -0.5537
     19 P          40.1247    5.0770   10.9898 P.3         1 UA3       0.2013
     20 O1P        39.3743    4.5876   12.1246 O.co2       1 UA3      -0.5537
     21 O2P        39.3945    4.6477    9.8209 O.co2       1 UA3      -0.5537
     22 H1         40.2783    7.0197    4.0588 H           1 UA3       0.2259
     23 H2         44.2464    6.2794    4.2415 H           1 UA3       0.0258
     24 H3         44.0318    5.7996    6.4991 H           1 UA3       0.1178
     25 H4         45.3041    7.4273    9.2481 H           1 UA3       0.2095
     26 H5         45.0785    5.2714    8.7390 H           1 UA3       0.0584
     27 H6         45.1854    4.8734   10.4667 H           1 UA3       0.0584
     28 H7         43.1333    6.3999   10.8228 H           1 UA3       0.0650
     29 H8         43.1765    3.6701   10.1587 H           1 UA3       0.0704
     30 H9         41.0609    3.8559    8.4066 H           1 UA3       0.0680
     31 H10        42.5964    3.5067    6.8335 H           1 UA3       0.2101
     32 H11        40.9280    6.2076    8.4191 H           1 UA3       0.0997
@<TRIPOS>BOND
     1     1     2  am
     2     1     8   1
     3    17     1   1
     4     2     3   2
     5     2     4  am
     6     4     5  am
     7     5     6   2
     8     7     5   1
     9     8     7   2
    10    10     9   1
    11    11    10   1
    12    12    11   1
    13    11    13   1
    14    12    17   1
    15    13    14   1
    16    13    15   1
    17    14    19   1
    18    15    16   1
    19    15    17   1
    20    19    18  ar
    21    19    20  ar
    22    19    21  ar
    23     4    22   1
    24     7    23   1
    25     8    24   1
    26     9    25   1
    27    10    26   1
    28    10    27   1
    29    11    28   1
    30    13    29   1
    31    15    30   1
    32    16    31   1
    33    17    32   1
@<TRIPOS>SUBSTRUCTURE
     1  UA3      2

