@<TRIPOS>MOLECULE
1w4o_ligand_031
    32    33
SMALL
GAST_HUCK
****
This file was generated by PARSER (from files_GN.cpp)

@<TRIPOS>ATOM
      1 N1         41.1956    6.1327    9.9306 N.am        1 UA3      -0.1592
      2 C2         41.7757    6.4680   11.1054 C.2         1 UA3       0.3328
      3 O2         42.8948    6.9558   11.1885 O.2         1 UA3      -0.3815
      4 N3         41.1142    6.2915   12.2478 N.am        1 UA3      -0.1865
      5 C4         39.8879    5.7792   12.2739 C.2         1 UA3       0.1822
      6 O4         39.3209    5.6506   13.3452 O.2         1 UA3      -0.4124
      7 C5         39.2867    5.3879   11.1153 C.2         1 UA3       0.0062
      8 C6         39.9541    5.5611    9.9591 C.2         1 UA3       0.0591
      9 O5         41.3511    7.0468    4.0190 O.3         1 UA3      -0.3924
     10 C5         40.9521    6.1919    5.0885 C.3         1 UA3       0.0734
     11 C4         41.8191    6.4563    6.3586 C.3         1 UA3       0.1182
     12 O4         40.9855    6.4486    7.5227 O.3         1 UA3      -0.3363
     13 C3         42.9348    5.4260    6.7021 C.3         1 UA3       0.1483
     14 O3         44.1965    5.6100    6.0033 O.3         1 UA3      -0.2675
     15 C2         42.9428    5.3814    8.2563 C.3         1 UA3       0.1433
     16 O2         42.6806    4.0665    8.7525 O.3         1 UA3      -0.3833
     17 C1         41.8585    6.4086    8.6620 C.3         1 UA3       0.2062
     18 O3P        46.2039    6.6877    5.2536 O.co2       1 UA3      -0.5537
     19 P          45.2235    6.7472    6.3062 P.3         1 UA3       0.2013
     20 O1P        45.9693    6.5241    7.5219 O.co2       1 UA3      -0.5537
     21 O2P        44.6959    8.0839    6.2784 O.co2       1 UA3      -0.5537
     22 H1         41.5366    6.5483   13.0822 H           1 UA3       0.2259
     23 H2         38.3886    4.9634   11.1233 H           1 UA3       0.0258
     24 H3         39.5229    5.2423    9.1230 H           1 UA3       0.1178
     25 H4         40.5158    7.2791    3.5486 H           1 UA3       0.2095
     26 H5         41.0195    5.1594    4.7562 H           1 UA3       0.0584
     27 H6         39.9059    6.4073    5.3054 H           1 UA3       0.0584
     28 H7         42.2448    7.4576    6.2727 H           1 UA3       0.0650
     29 H8         42.5848    4.4484    6.3608 H           1 UA3       0.0704
     30 H9         43.9063    5.6818    8.6711 H           1 UA3       0.0680
     31 H10        41.7372    3.8984    8.5425 H           1 UA3       0.2101
     32 H11        42.3181    7.4096    8.7287 H           1 UA3       0.0997
@<TRIPOS>BOND
     1     1     2  am
     2     1     8   1
     3    17     1   1
     4     2     3   2
     5     2     4  am
     6     4     5  am
     7     5     6   2
     8     7     5   1
     9     8     7   2
    10    10     9   1
    11    11    10   1
    12    12    11   1
    13    11    13   1
    14    12    17   1
    15    13    14   1
    16    13    15   1
    17    14    19   1
    18    15    16   1
    19    15    17   1
    20    19    18  ar
    21    19    20  ar
    22    19    21  ar
    23     4    22   1
    24     7    23   1
    25     8    24   1
    26     9    25   1
    27    10    26   1
    28    10    27   1
    29    11    28   1
    30    13    29   1
    31    15    30   1
    32    16    31   1
    33    17    32   1
@<TRIPOS>SUBSTRUCTURE
     1  UA3      2

