@<TRIPOS>MOLECULE
1w4o_ligand_023
    32    33
SMALL
GAST_HUCK
****
This file was generated by PARSER (from files_GN.cpp)

@<TRIPOS>ATOM
      1 N1         42.9430    4.6977    8.9762 N.am        1 UA3      -0.1592
      2 C2         44.1613    5.2796    9.0659 C.2         1 UA3       0.3328
      3 O2         44.7324    5.8170    8.1268 O.2         1 UA3      -0.3815
      4 N3         44.8041    5.3181   10.2315 N.am        1 UA3      -0.1865
      5 C4         44.2773    4.8060   11.3390 C.2         1 UA3       0.1822
      6 O4         44.9192    4.8579   12.3776 O.2         1 UA3      -0.4124
      7 C5         43.0369    4.2476   11.3083 C.2         1 UA3       0.0062
      8 C6         42.3826    4.2063   10.1290 C.2         1 UA3       0.0591
      9 O5         42.8437    6.6287    3.4693 O.3         1 UA3      -0.3924
     10 C5         43.4084    5.7785    4.4708 C.3         1 UA3       0.0734
     11 C4         42.3759    5.3469    5.5449 C.3         1 UA3       0.1182
     12 O4         43.0109    4.5595    6.5641 O.3         1 UA3      -0.3363
     13 C3         41.7276    6.5213    6.3079 C.3         1 UA3       0.1483
     14 O3         40.6870    7.1044    5.4925 O.3         1 UA3      -0.2675
     15 C2         41.1830    5.7951    7.5537 C.3         1 UA3       0.1433
     16 O2         41.0676    6.6701    8.6756 O.3         1 UA3      -0.3833
     17 C1         42.1808    4.6168    7.7433 C.3         1 UA3       0.2062
     18 O3P        38.8904    8.7249    5.8462 O.co2       1 UA3      -0.5537
     19 P          40.3196    8.6029    5.6930 P.3         1 UA3       0.2013
     20 O1P        40.6707    9.3143    4.4892 O.co2       1 UA3      -0.5537
     21 O2P        40.9249    9.2788    6.8115 O.co2       1 UA3      -0.5537
     22 H1         45.6868    5.7264   10.2705 H           1 UA3       0.2259
     23 H2         42.6183    3.8900   12.1386 H           1 UA3       0.0258
     24 H3         41.4675    3.8188   10.1206 H           1 UA3       0.1178
     25 H4         42.0489    6.1464    3.1407 H           1 UA3       0.2095
     26 H5         44.2476    6.2996    4.9427 H           1 UA3       0.0584
     27 H6         43.7934    4.8830    3.9814 H           1 UA3       0.0584
     28 H7         41.6023    4.7383    5.0595 H           1 UA3       0.0650
     29 H8         42.5223    7.2304    6.5838 H           1 UA3       0.0704
     30 H9         40.1914    5.3907    7.3299 H           1 UA3       0.0680
     31 H10        40.3753    7.3128    8.4238 H           1 UA3       0.2101
     32 H11        41.6193    3.6724    7.7299 H           1 UA3       0.0997
@<TRIPOS>BOND
     1     1     2  am
     2     1     8   1
     3    17     1   1
     4     2     3   2
     5     2     4  am
     6     4     5  am
     7     5     6   2
     8     7     5   1
     9     8     7   2
    10    10     9   1
    11    11    10   1
    12    12    11   1
    13    11    13   1
    14    12    17   1
    15    13    14   1
    16    13    15   1
    17    14    19   1
    18    15    16   1
    19    15    17   1
    20    19    18  ar
    21    19    20  ar
    22    19    21  ar
    23     4    22   1
    24     7    23   1
    25     8    24   1
    26     9    25   1
    27    10    26   1
    28    10    27   1
    29    11    28   1
    30    13    29   1
    31    15    30   1
    32    16    31   1
    33    17    32   1
@<TRIPOS>SUBSTRUCTURE
     1  UA3      2

