@<TRIPOS>MOLECULE
1w4o_ligand_013
    32    33
SMALL
GAST_HUCK
****
This file was generated by PARSER (from files_GN.cpp)

@<TRIPOS>ATOM
      1 N1         45.4632    7.7671    6.2256 N.am        1 UA3      -0.1592
      2 C2         46.0235    8.9615    6.5081 C.2         1 UA3       0.3328
      3 O2         45.4162    9.8901    7.0223 O.2         1 UA3      -0.3815
      4 N3         47.3041    9.1913    6.2109 N.am        1 UA3      -0.1865
      5 C4         48.0631    8.2659    5.6329 C.2         1 UA3       0.1822
      6 O4         49.2310    8.5302    5.3776 O.2         1 UA3      -0.4124
      7 C5         47.5382    7.0507    5.3213 C.2         1 UA3       0.0062
      8 C6         46.2489    6.8204    5.6266 C.2         1 UA3       0.0591
      9 O5         42.8962    3.5781    7.4481 O.3         1 UA3      -0.3924
     10 C5         42.1259    4.4090    6.5825 C.3         1 UA3       0.0734
     11 C4         42.4312    5.8957    6.8714 C.3         1 UA3       0.1182
     12 O4         43.8511    6.1163    6.9161 O.3         1 UA3      -0.3363
     13 C3         41.8388    6.8769    5.8115 C.3         1 UA3       0.1483
     14 O3         40.8783    7.8417    6.3157 O.3         1 UA3      -0.2675
     15 C2         43.0940    7.6417    5.3304 C.3         1 UA3       0.1433
     16 O2         43.5965    7.0635    4.1257 O.3         1 UA3      -0.3833
     17 C1         44.0676    7.4769    6.5153 C.3         1 UA3       0.2062
     18 O3P        39.1523    5.9740    6.4802 O.co2       1 UA3      -0.5537
     19 P          39.5198    7.3097    6.8873 P.3         1 UA3       0.2013
     20 O1P        38.4694    8.2005    6.4607 O.co2       1 UA3      -0.5537
     21 O2P        39.5625    7.3705    8.3293 O.co2       1 UA3      -0.5537
     22 H1         47.6955   10.0577    6.4269 H           1 UA3       0.2259
     23 H2         48.0882    6.3519    4.8762 H           1 UA3       0.0258
     24 H3         45.8719    5.9295    5.3946 H           1 UA3       0.1178
     25 H4         42.2502    2.9674    7.8649 H           1 UA3       0.2095
     26 H5         41.0654    4.2104    6.7443 H           1 UA3       0.0584
     27 H6         42.3713    4.1551    5.5406 H           1 UA3       0.0584
     28 H7         42.0391    6.1365    7.8624 H           1 UA3       0.0650
     29 H8         41.3951    6.3543    4.9491 H           1 UA3       0.0704
     30 H9         42.8961    8.7001    5.1415 H           1 UA3       0.0680
     31 H10        43.8037    6.1319    4.3466 H           1 UA3       0.2101
     32 H11        43.7259    8.1057    7.3501 H           1 UA3       0.0997
@<TRIPOS>BOND
     1     1     2  am
     2     1     8   1
     3    17     1   1
     4     2     3   2
     5     2     4  am
     6     4     5  am
     7     5     6   2
     8     7     5   1
     9     8     7   2
    10    10     9   1
    11    11    10   1
    12    12    11   1
    13    11    13   1
    14    12    17   1
    15    13    14   1
    16    13    15   1
    17    14    19   1
    18    15    16   1
    19    15    17   1
    20    19    18  ar
    21    19    20  ar
    22    19    21  ar
    23     4    22   1
    24     7    23   1
    25     8    24   1
    26     9    25   1
    27    10    26   1
    28    10    27   1
    29    11    28   1
    30    13    29   1
    31    15    30   1
    32    16    31   1
    33    17    32   1
@<TRIPOS>SUBSTRUCTURE
     1  UA3      2

