@<TRIPOS>MOLECULE
1w4o_ligand_041
    32    33
SMALL
GAST_HUCK
****
This file was generated by PARSER (from files_GN.cpp)

@<TRIPOS>ATOM
      1 N1         43.0214    5.7414    6.8995 N.am        1 UA3      -0.1592
      2 C2         44.1032    6.0625    6.1597 C.2         1 UA3       0.3328
      3 O2         45.2315    6.1633    6.6250 O.2         1 UA3      -0.3815
      4 N3         43.9830    6.3011    4.8506 N.am        1 UA3      -0.1865
      5 C4         42.8081    6.2193    4.2331 C.2         1 UA3       0.1822
      6 O4         42.7498    6.4627    3.0348 O.2         1 UA3      -0.4124
      7 C5         41.6941    5.8701    4.9330 C.2         1 UA3       0.0062
      8 C6         41.8121    5.6481    6.2579 C.2         1 UA3       0.0591
      9 O5         40.0698    3.9292   11.3119 O.3         1 UA3      -0.3924
     10 C5         40.1945    5.0993   10.5044 C.3         1 UA3       0.0734
     11 C4         41.6852    5.3881   10.1716 C.3         1 UA3       0.1182
     12 O4         42.0262    4.8015    8.9090 O.3         1 UA3      -0.3363
     13 C3         42.0198    6.8885   10.0416 C.3         1 UA3       0.1483
     14 O3         42.1661    7.4437   11.3694 O.3         1 UA3      -0.2675
     15 C2         43.2867    6.8386    9.1675 C.3         1 UA3       0.1433
     16 O2         43.4067    8.0387    8.4034 O.3         1 UA3      -0.3833
     17 C1         43.1350    5.5267    8.3421 C.3         1 UA3       0.2062
     18 O3P        41.7815    9.8198   10.7060 O.co2       1 UA3      -0.5537
     19 P          42.5848    8.9358   11.5091 P.3         1 UA3       0.2013
     20 O1P        43.9839    9.1336   11.2291 O.co2       1 UA3      -0.5537
     21 O2P        42.3827    9.3127   12.8861 O.co2       1 UA3      -0.5537
     22 H1         44.7685    6.5445    4.3371 H           1 UA3       0.2259
     23 H2         40.8089    5.7946    4.4852 H           1 UA3       0.0258
     24 H3         40.9854    5.4176    6.7565 H           1 UA3       0.1178
     25 H4         40.5547    3.2285   10.8312 H           1 UA3       0.2095
     26 H5         39.7535    5.9307   11.0587 H           1 UA3       0.0584
     27 H6         39.6128    4.9677    9.5867 H           1 UA3       0.0584
     28 H7         42.3247    4.9416   10.9478 H           1 UA3       0.0650
     29 H8         41.2124    7.3909    9.4952 H           1 UA3       0.0704
     30 H9         44.1656    6.7624    9.8123 H           1 UA3       0.0680
     31 H10        44.2861    7.9876    7.9749 H           1 UA3       0.2101
     32 H11        44.0070    4.8896    8.5253 H           1 UA3       0.0997
@<TRIPOS>BOND
     1     1     2  am
     2     1     8   1
     3    17     1   1
     4     2     3   2
     5     2     4  am
     6     4     5  am
     7     5     6   2
     8     7     5   1
     9     8     7   2
    10    10     9   1
    11    11    10   1
    12    12    11   1
    13    11    13   1
    14    12    17   1
    15    13    14   1
    16    13    15   1
    17    14    19   1
    18    15    16   1
    19    15    17   1
    20    19    18  ar
    21    19    20  ar
    22    19    21  ar
    23     4    22   1
    24     7    23   1
    25     8    24   1
    26     9    25   1
    27    10    26   1
    28    10    27   1
    29    11    28   1
    30    13    29   1
    31    15    30   1
    32    16    31   1
    33    17    32   1
@<TRIPOS>SUBSTRUCTURE
     1  UA3      2

