@<TRIPOS>MOLECULE
1xd0_ligand_039
   111   115
SMALL
GAST_HUCK
****
This file was generated by PARSER (from files_GN.cpp)

@<TRIPOS>ATOM
      1 CR1        14.2011   18.1107   37.6697 C.3         1 MOL       0.1854
      2 CR2        13.1759   17.0103   37.2840 C.3         1 MOL       0.1339
      3 CR3        12.3975   16.5353   38.5440 C.3         1 MOL       0.1144
      4 CR4        13.3892   16.0951   39.6541 C.3         1 MOL       0.1184
      5 CR5        14.4485   17.2097   39.9329 C.3         1 MOL       0.1134
      6 CR6        15.5439   16.7209   40.9253 C.3         1 MOL       0.0730
      7 OR1        13.5392   19.3121   38.0685 O.3         1 MOL      -0.3649
      8 OR2        12.2626   17.4672   36.2859 O.3         1 MOL      -0.3841
      9 OR3        11.5412   15.4408   38.2141 O.3         1 MOL      -0.3864
     10 OR4        12.7088   15.5754   40.8194 O.3         1 MOL      -0.3401
     11 OR5        15.0881   17.6429   38.7085 O.3         1 MOL      -0.3407
     12 OR6        15.8639   17.7334   41.8729 O.3         1 MOL      -0.3924
     13 CV1        12.3751   16.3729   41.9758 C.3         1 MOL       0.1886
     14 CV2        12.0654   15.3854   43.1333 C.3         1 MOL       0.1370
     15 CV3        11.6312   16.1602   44.4021 C.3         1 MOL       0.1304
     16 CV4        10.5347   17.2666   44.1682 C.3         1 MOL       0.0334
     17 CV5        10.7883   18.0584   42.8272 C.3         1 MOL       0.1038
     18 CV6        11.7331   19.2873   42.9868 C.3         1 MOL      -0.0332
     19 OV2        11.0606   14.4480   42.7334 O.3         1 MOL      -0.3840
     20 OV3        12.8204   16.7651   44.9285 O.3         1 MOL      -0.3834
     21 NV4         9.0832   16.9212   44.4084 N.4         1 MOL       0.2370
     22 OV5        11.2325   17.2196   41.7333 O.3         1 MOL      -0.3401
     23 CQ1         3.1656   15.5398   42.3902 C.3         1 MOL       0.1883
     24 CQ2         3.3085   14.3777   41.3583 C.3         1 MOL       0.1341
     25 CQ3         1.9163   13.8216   40.9443 C.3         1 MOL       0.1144
     26 CQ4         0.9755   14.9578   40.4453 C.3         1 MOL       0.1184
     27 CQ5         0.9142   16.1215   41.4811 C.3         1 MOL       0.1134
     28 CQ6        -0.0431   15.8575   42.6885 C.3         1 MOL       0.0730
     29 OQ2         4.0194   14.8336   40.2027 O.3         1 MOL      -0.3841
     30 OQ3         1.3703   13.1168   42.0608 O.3         1 MOL      -0.3864
     31 OQ4         1.5158   15.4236   39.1847 O.3         1 MOL      -0.3401
     32 OQ5         2.2413   16.5327   41.8929 O.3         1 MOL      -0.3405
     33 OQ6        -1.2017   16.6912   42.6608 O.3         1 MOL      -0.3924
     34 CW1         0.6376   15.5076   38.0395 C.3         1 MOL       0.1884
     35 CW2         1.4534   15.6559   36.7250 C.3         1 MOL       0.1341
     36 CW3         2.0882   17.0653   36.6150 C.3         1 MOL       0.1141
     37 CW4         1.0219   18.1742   36.8256 C.3         1 MOL       0.1119
     38 CW5         0.2377   17.9308   38.1527 C.3         1 MOL       0.1130
     39 CW6        -0.9554   18.8962   38.3583 C.3         1 MOL       0.0730
     40 OW2         2.4579   14.6453   36.6552 O.3         1 MOL      -0.3841
     41 OW3         2.7197   17.2263   35.3445 O.3         1 MOL      -0.3864
     42 OW4         1.6628   19.4502   36.8200 O.3         1 MOL      -0.3865
     43 OW5        -0.3102   16.5891   38.1806 O.3         1 MOL      -0.3405
     44 OW6        -0.5873   20.2616   38.2034 O.3         1 MOL      -0.3924
     45 CY1         8.4845   15.5792   44.1178 C.3         1 MOL       0.0073
     46 CY2         8.0777   15.3577   42.6248 C.3         1 MOL       0.1257
     47 OY2         9.1108   15.7858   41.7366 O.3         1 MOL      -0.3835
     48 CY3         6.7625   16.0836   42.2425 C.3         1 MOL       0.1127
     49 OY3         6.4567   15.8342   40.8702 O.3         1 MOL      -0.3864
     50 CY4         5.5814   15.6236   43.1409 C.3         1 MOL       0.0953
     51 OY4         4.3822   16.2768   42.6485 O.3         1 MOL      -0.3424
     52 CY5         5.9208   15.9928   44.6303 C.3         1 MOL       0.0162
     53 CY6         7.2649   15.3007   45.0555 C.3         1 MOL       0.0002
     54 CY7         4.7809   15.6553   45.6347 C.3         1 MOL       0.0497
     55 OY7         4.8551   14.3310   46.1731 O.3         1 MOL      -0.3946
     56 H1         14.8078   18.3366   36.7919 H           1 MOL       0.0935
     57 H2         13.7174   16.1550   36.8598 H           1 MOL       0.0671
     58 H3         11.7721   17.3546   38.9081 H           1 MOL       0.0648
     59 H4         13.9367   15.2382   39.2520 H           1 MOL       0.0651
     60 H5         13.9436   18.0788   40.3674 H           1 MOL       0.0647
     61 H6         16.4517   16.4176   40.3906 H           1 MOL       0.0584
     62 H7         15.2047   15.8641   41.5108 H           1 MOL       0.0584
     63 H8         14.2435   19.8774   38.4486 H           1 MOL       0.2126
     64 H9         12.8311   17.7368   35.5284 H           1 MOL       0.2101
     65 H10        10.8469   15.8177   37.6333 H           1 MOL       0.2100
     66 H11        16.6874   18.1492   41.5455 H           1 MOL       0.2095
     67 H12        13.2467   16.9684   42.2557 H           1 MOL       0.0938
     68 H13        12.9810   14.8232   43.3689 H           1 MOL       0.0672
     69 H14        11.2846   15.4560   45.1607 H           1 MOL       0.0679
     70 H15        10.6917   18.0012   44.9724 H           1 MOL       0.0903
     71 H16         9.8367   18.4721   42.4876 H           1 MOL       0.0652
     72 H17        11.9016   19.7650   42.0170 H           1 MOL       0.0257
     73 H18        12.7028   18.9951   43.4034 H           1 MOL       0.0257
     74 H19        11.2856   20.0275   43.6575 H           1 MOL       0.0257
     75 H20        11.4529   14.0125   41.9370 H           1 MOL       0.2101
     76 H21        12.7130   16.7636   45.9052 H           1 MOL       0.2102
     77 H22         8.5167   17.6126   43.9103 H           1 MOL       0.2022
     78 H23         8.9123   17.0907   45.4111 H           1 MOL       0.2022
     79 H24         2.7895   15.1503   43.3362 H           1 MOL       0.0938
     80 H25         3.8861   13.5595   41.8041 H           1 MOL       0.0671
     81 H26         2.0509   13.0844   40.1440 H           1 MOL       0.0648
     82 H27        -0.0240   14.5321   40.3183 H           1 MOL       0.0651
     83 H28         0.5084   16.9858   40.9554 H           1 MOL       0.0647
     84 H29         0.4722   16.0343   43.6334 H           1 MOL       0.0584
     85 H30        -0.4043   14.8276   42.7088 H           1 MOL       0.0584
     86 H31         4.2563   14.0168   39.7076 H           1 MOL       0.2101
     87 H32         0.4319   12.9631   41.8385 H           1 MOL       0.2100
     88 H33        -0.8644   17.5965   42.5039 H           1 MOL       0.2095
     89 H34         0.0653   14.5780   37.9469 H           1 MOL       0.0938
     90 H35         0.7732   15.5094   35.8806 H           1 MOL       0.0671
     91 H36         2.8634   17.1652   37.3796 H           1 MOL       0.0648
     92 H37         0.3180   18.1523   35.9892 H           1 MOL       0.0647
     93 H38         0.9244   18.0641   38.9966 H           1 MOL       0.0647
     94 H39        -1.3420   18.7762   39.3711 H           1 MOL       0.0584
     95 H40        -1.7561   18.6609   37.6559 H           1 MOL       0.0584
     96 H41         2.8016   14.6818   35.7375 H           1 MOL       0.2101
     97 H42         2.0063   17.1283   34.6777 H           1 MOL       0.2100
     98 H43         2.2592   19.4514   37.5988 H           1 MOL       0.2100
     99 H44        -0.4688   20.3938   37.2379 H           1 MOL       0.2095
    100 H45         9.2116   14.8174   44.3875 H           1 MOL       0.0877
    101 H46         7.9379   14.2763   42.4748 H           1 MOL       0.0677
    102 H47         9.0496   15.1612   40.9547 H           1 MOL       0.2102
    103 H48         6.8960   17.1655   42.3535 H           1 MOL       0.0647
    104 H49         7.0461   16.4369   40.3644 H           1 MOL       0.2100
    105 H50         5.5013   14.5356   43.0784 H           1 MOL       0.0627
    106 H51         6.0917   17.0770   44.6966 H           1 MOL       0.0351
    107 H52         7.5209   15.5925   46.0874 H           1 MOL       0.0325
    108 H53         7.0981   14.2163   45.0723 H           1 MOL       0.0325
    109 H54         3.8128   15.7686   45.1381 H           1 MOL       0.0561
    110 H55         4.8195   16.3633   46.4733 H           1 MOL       0.0561
    111 H56         4.9730   13.7387   45.3947 H           1 MOL       0.2094
@<TRIPOS>BOND
     1     2     1   1
     2     1     7   1
     3    11     1   1
     4     3     2   1
     5     2     8   1
     6     4     3   1
     7     3     9   1
     8     4     5   1
     9    10     4   1
    10     5     6   1
    11     5    11   1
    12     6    12   1
    13    13    10   1
    14    14    13   1
    15    22    13   1
    16    15    14   1
    17    14    19   1
    18    16    15   1
    19    15    20   1
    20    16    17   1
    21    21    16   1
    22    17    18   1
    23    17    22   1
    24    45    21   1
    25    23    24   1
    26    23    32   1
    27    51    23   1
    28    24    25   1
    29    24    29   1
    30    25    26   1
    31    25    30   1
    32    27    26   1
    33    26    31   1
    34    27    28   1
    35    32    27   1
    36    28    33   1
    37    31    34   1
    38    34    35   1
    39    34    43   1
    40    35    36   1
    41    35    40   1
    42    36    37   1
    43    36    41   1
    44    38    37   1
    45    37    42   1
    46    38    39   1
    47    43    38   1
    48    39    44   1
    49    46    45   1
    50    45    53   1
    51    46    47   1
    52    48    46   1
    53    48    49   1
    54    50    48   1
    55    50    51   1
    56    50    52   1
    57    52    53   1
    58    52    54   1
    59    54    55   1
    60     1    56   1
    61     2    57   1
    62     3    58   1
    63     4    59   1
    64     5    60   1
    65     6    61   1
    66     6    62   1
    67     7    63   1
    68     8    64   1
    69     9    65   1
    70    12    66   1
    71    13    67   1
    72    14    68   1
    73    15    69   1
    74    16    70   1
    75    17    71   1
    76    18    72   1
    77    18    73   1
    78    18    74   1
    79    19    75   1
    80    20    76   1
    81    21    77   1
    82    21    78   1
    83    23    79   1
    84    24    80   1
    85    25    81   1
    86    26    82   1
    87    27    83   1
    88    28    84   1
    89    28    85   1
    90    29    86   1
    91    30    87   1
    92    33    88   1
    93    34    89   1
    94    35    90   1
    95    36    91   1
    96    37    92   1
    97    38    93   1
    98    39    94   1
    99    39    95   1
   100    40    96   1
   101    41    97   1
   102    42    98   1
   103    44    99   1
   104    45   100   1
   105    46   101   1
   106    47   102   1
   107    48   103   1
   108    49   104   1
   109    50   105   1
   110    52   106   1
   111    53   107   1
   112    53   108   1
   113    54   109   1
   114    54   110   1
   115    55   111   1
@<TRIPOS>SUBSTRUCTURE
     1  MOL      1

