@<TRIPOS>MOLECULE
1xd0_ligand_032
   111   115
SMALL
GAST_HUCK
****
This file was generated by PARSER (from files_GN.cpp)

@<TRIPOS>ATOM
      1 CR1         2.8626   15.1965   41.9844 C.3         1 MOL       0.1854
      2 CR2         3.9784   14.1238   42.0535 C.3         1 MOL       0.1339
      3 CR3         5.0329   14.3569   40.9381 C.3         1 MOL       0.1144
      4 CR4         5.5343   15.8389   40.9324 C.3         1 MOL       0.1184
      5 CR5         4.3371   16.8401   40.8832 C.3         1 MOL       0.1134
      6 CR6         3.6873   17.1071   39.4917 C.3         1 MOL       0.0730
      7 OR1         2.0319   15.1023   43.1332 O.3         1 MOL      -0.3649
      8 OR2         4.6155   14.1248   43.3342 O.3         1 MOL      -0.3841
      9 OR3         4.5152   13.9951   39.6510 O.3         1 MOL      -0.3864
     10 OR4         6.2788   16.1898   42.1334 O.3         1 MOL      -0.3401
     11 OR5         3.3773   16.5429   41.9253 O.3         1 MOL      -0.3407
     12 OR6         3.0914   15.9784   38.8639 O.3         1 MOL      -0.3924
     13 CV1         7.5260   15.5236   42.4146 C.3         1 MOL       0.1886
     14 CV2         8.0604   15.9201   43.8256 C.3         1 MOL       0.1370
     15 CV3         8.8696   17.2553   43.8079 C.3         1 MOL       0.1304
     16 CV4         9.9300   17.2144   42.6658 C.3         1 MOL       0.0334
     17 CV5         9.1259   17.0441   41.3334 C.3         1 MOL       0.1038
     18 CV6         9.9865   17.0938   40.0466 C.3         1 MOL      -0.0332
     19 OV2         6.9867   15.9832   44.7653 O.3         1 MOL      -0.3840
     20 OV3         9.4981   17.4331   45.0748 O.3         1 MOL      -0.3834
     21 NV4        10.9049   18.3484   42.6486 N.4         1 MOL       0.2370
     22 OV5         8.4953   15.7380   41.3607 O.3         1 MOL      -0.3401
     23 CQ1        14.3365   16.0561   40.1847 C.3         1 MOL       0.1883
     24 CQ2        14.3516   14.6139   39.6198 C.3         1 MOL       0.1341
     25 CQ3        13.7669   14.6233   38.1713 C.3         1 MOL       0.1144
     26 CQ4        14.4524   15.6704   37.2426 C.3         1 MOL       0.1184
     27 CQ5        14.7315   17.0408   37.9503 C.3         1 MOL       0.1134
     28 CQ6        13.6189   18.1183   37.7897 C.3         1 MOL       0.0730
     29 OQ2        15.6765   14.0652   39.6442 O.3         1 MOL      -0.3841
     30 OQ3        12.3533   14.8471   38.2126 O.3         1 MOL      -0.3864
     31 OQ4        15.7071   15.0861   36.8159 O.3         1 MOL      -0.3401
     32 OQ5        15.1316   16.9122   39.3381 O.3         1 MOL      -0.3405
     33 OQ6        12.3786   17.7187   38.3736 O.3         1 MOL      -0.3924
     34 CW1        15.8685   14.6552   35.4410 C.3         1 MOL       0.1884
     35 CW2        15.0394   13.4020   35.0167 C.3         1 MOL       0.1341
     36 CW3        15.5013   12.1431   35.8052 C.3         1 MOL       0.1141
     37 CW4        17.0376   11.9368   35.6672 C.3         1 MOL       0.1119
     38 CW5        17.8027   13.2600   35.9892 C.3         1 MOL       0.1130
     39 CW6        19.3176   13.1542   35.6795 C.3         1 MOL       0.0730
     40 OW2        13.6373   13.6155   35.1868 O.3         1 MOL      -0.3841
     41 OW3        14.7898   10.9960   35.3219 O.3         1 MOL      -0.3864
     42 OW4        17.4707   10.8969   36.5452 O.3         1 MOL      -0.3865
     43 OW5        17.2679   14.3731   35.2302 O.3         1 MOL      -0.3405
     44 OW6        20.0260   14.1884   36.3618 O.3         1 MOL      -0.3924
     45 CY1        11.9700   18.4467   43.6995 C.3         1 MOL       0.0073
     46 CY2        13.2122   19.2189   43.1632 C.3         1 MOL       0.1257
     47 OY2        12.8628   20.4821   42.6075 O.3         1 MOL      -0.3835
     48 CY3        14.0038   18.3998   42.0949 C.3         1 MOL       0.1127
     49 OY3        15.2308   19.0586   41.7677 O.3         1 MOL      -0.3864
     50 CY4        14.3620   16.9440   42.5448 C.3         1 MOL       0.0953
     51 OY4        14.9487   16.1322   41.4906 O.3         1 MOL      -0.3424
     52 CY5        13.2052   16.1808   43.2771 C.3         1 MOL       0.0162
     53 CY6        12.4909   17.1099   44.3124 C.3         1 MOL       0.0002
     54 CY7        13.6797   14.8878   44.0107 C.3         1 MOL       0.0497
     55 OY7        14.8712   14.3208   43.4691 O.3         1 MOL      -0.3946
     56 H1          2.2211   15.0067   41.1206 H           1 MOL       0.0935
     57 H2          3.5225   13.1421   41.9162 H           1 MOL       0.0671
     58 H3          5.8802   13.6840   41.0984 H           1 MOL       0.0648
     59 H4          6.1709   16.0021   40.0560 H           1 MOL       0.0651
     60 H5          4.7452   17.8177   41.1654 H           1 MOL       0.0647
     61 H6          4.4387   17.5177   38.8138 H           1 MOL       0.0584
     62 H7          2.8957   17.8481   39.6206 H           1 MOL       0.0584
     63 H8          1.5014   15.9335   43.1347 H           1 MOL       0.2126
     64 H9          5.1199   13.2929   43.3904 H           1 MOL       0.2101
     65 H10         4.3268   13.0325   39.7155 H           1 MOL       0.2100
     66 H11         2.7496   16.3168   38.0031 H           1 MOL       0.2095
     67 H12         7.3501   14.4503   42.4611 H           1 MOL       0.0938
     68 H13         8.7410   15.1266   44.1657 H           1 MOL       0.0672
     69 H14         8.1900   18.0982   43.6436 H           1 MOL       0.0679
     70 H15        10.5100   16.2876   42.7678 H           1 MOL       0.0903
     71 H16         8.3674   17.8303   41.2422 H           1 MOL       0.0652
     72 H17         9.3683   16.8295   39.1799 H           1 MOL       0.0257
     73 H18        10.8223   16.3864   40.1144 H           1 MOL       0.0257
     74 H19        10.3797   18.1017   39.8886 H           1 MOL       0.0257
     75 H20         7.3806   16.3237   45.5971 H           1 MOL       0.2101
     76 H21         8.7612   17.6855   45.6754 H           1 MOL       0.2102
     77 H22        10.3696   19.2203   42.6592 H           1 MOL       0.2022
     78 H23        11.3855   18.2935   41.7504 H           1 MOL       0.2022
     79 H24        13.3008   16.3851   40.2076 H           1 MOL       0.0938
     80 H25        13.7266   13.9735   40.2471 H           1 MOL       0.0671
     81 H26        13.9071   13.6222   37.7316 H           1 MOL       0.0648
     82 H27        13.7934   15.8508   36.3905 H           1 MOL       0.0651
     83 H28        15.6082   17.4731   37.4599 H           1 MOL       0.0647
     84 H29        13.4570   18.3165   36.7256 H           1 MOL       0.0584
     85 H30        13.9484   19.0511   38.2668 H           1 MOL       0.0584
     86 H31        16.2070   14.6231   39.0399 H           1 MOL       0.2101
     87 H32        11.9937   14.0590   38.6824 H           1 MOL       0.2100
     88 H33        11.7510   18.4235   38.1131 H           1 MOL       0.2095
     89 H34        15.6169   15.4823   34.7723 H           1 MOL       0.0938
     90 H35        15.2145   13.2276   33.9496 H           1 MOL       0.0671
     91 H36        15.2398   12.2828   36.8649 H           1 MOL       0.0648
     92 H37        17.2586   11.6390   34.6382 H           1 MOL       0.0647
     93 H38        17.7063   13.4653   37.0620 H           1 MOL       0.0647
     94 H39        19.5073   13.2360   34.6018 H           1 MOL       0.0584
     95 H40        19.7052   12.1927   36.0316 H           1 MOL       0.0584
     96 H41        13.2087   12.8044   34.8166 H           1 MOL       0.2101
     97 H42        14.3551   10.6076   36.1098 H           1 MOL       0.2100
     98 H43        17.0899   10.0726   36.1764 H           1 MOL       0.2100
     99 H44        20.4800   14.6982   35.6529 H           1 MOL       0.2095
    100 H45        11.5601   19.0428   44.5199 H           1 MOL       0.0877
    101 H46        13.8875   19.4337   44.0042 H           1 MOL       0.0677
    102 H47        12.4942   21.0137   43.3520 H           1 MOL       0.2102
    103 H48        13.4020   18.3811   41.1936 H           1 MOL       0.0647
    104 H49        14.9759   19.8459   41.2429 H           1 MOL       0.2100
    105 H50        15.1546   17.0452   43.2852 H           1 MOL       0.0627
    106 H51        12.4701   15.8830   42.5208 H           1 MOL       0.0351
    107 H52        11.6588   16.5695   44.7826 H           1 MOL       0.0325
    108 H53        13.1903   17.3370   45.1253 H           1 MOL       0.0325
    109 H54        12.9007   14.1183   43.9255 H           1 MOL       0.0561
    110 H55        13.8483   15.0838   45.0755 H           1 MOL       0.0561
    111 H56        15.6031   14.7049   43.9945 H           1 MOL       0.2094
@<TRIPOS>BOND
     1     2     1   1
     2     1     7   1
     3    11     1   1
     4     3     2   1
     5     2     8   1
     6     4     3   1
     7     3     9   1
     8     4     5   1
     9    10     4   1
    10     5     6   1
    11     5    11   1
    12     6    12   1
    13    13    10   1
    14    14    13   1
    15    22    13   1
    16    15    14   1
    17    14    19   1
    18    16    15   1
    19    15    20   1
    20    16    17   1
    21    21    16   1
    22    17    18   1
    23    17    22   1
    24    45    21   1
    25    23    24   1
    26    23    32   1
    27    51    23   1
    28    24    25   1
    29    24    29   1
    30    25    26   1
    31    25    30   1
    32    27    26   1
    33    26    31   1
    34    27    28   1
    35    32    27   1
    36    28    33   1
    37    31    34   1
    38    34    35   1
    39    34    43   1
    40    35    36   1
    41    35    40   1
    42    36    37   1
    43    36    41   1
    44    38    37   1
    45    37    42   1
    46    38    39   1
    47    43    38   1
    48    39    44   1
    49    46    45   1
    50    45    53   1
    51    46    47   1
    52    48    46   1
    53    48    49   1
    54    50    48   1
    55    50    51   1
    56    50    52   1
    57    52    53   1
    58    52    54   1
    59    54    55   1
    60     1    56   1
    61     2    57   1
    62     3    58   1
    63     4    59   1
    64     5    60   1
    65     6    61   1
    66     6    62   1
    67     7    63   1
    68     8    64   1
    69     9    65   1
    70    12    66   1
    71    13    67   1
    72    14    68   1
    73    15    69   1
    74    16    70   1
    75    17    71   1
    76    18    72   1
    77    18    73   1
    78    18    74   1
    79    19    75   1
    80    20    76   1
    81    21    77   1
    82    21    78   1
    83    23    79   1
    84    24    80   1
    85    25    81   1
    86    26    82   1
    87    27    83   1
    88    28    84   1
    89    28    85   1
    90    29    86   1
    91    30    87   1
    92    33    88   1
    93    34    89   1
    94    35    90   1
    95    36    91   1
    96    37    92   1
    97    38    93   1
    98    39    94   1
    99    39    95   1
   100    40    96   1
   101    41    97   1
   102    42    98   1
   103    44    99   1
   104    45   100   1
   105    46   101   1
   106    47   102   1
   107    48   103   1
   108    49   104   1
   109    50   105   1
   110    52   106   1
   111    53   107   1
   112    53   108   1
   113    54   109   1
   114    54   110   1
   115    55   111   1
@<TRIPOS>SUBSTRUCTURE
     1  MOL      1

