@<TRIPOS>MOLECULE
1xd0_ligand_080
   111   115
SMALL
GAST_HUCK
****
This file was generated by PARSER (from files_GN.cpp)

@<TRIPOS>ATOM
      1 CR1        14.4206   16.0267   37.9795 C.3         1 MOL       0.1854
      2 CR2        13.1121   15.3546   38.4545 C.3         1 MOL       0.1339
      3 CR3        12.5541   16.1122   39.6891 C.3         1 MOL       0.1144
      4 CR4        13.6053   16.2423   40.8293 C.3         1 MOL       0.1184
      5 CR5        14.9659   16.7803   40.2604 C.3         1 MOL       0.1134
      6 CR6        16.1622   16.6829   41.2513 C.3         1 MOL       0.0730
      7 OR1        14.1977   17.3391   37.4604 O.3         1 MOL      -0.3649
      8 OR2        12.1505   15.2899   37.4029 O.3         1 MOL      -0.3841
      9 OR3        11.4023   15.4186   40.1669 O.3         1 MOL      -0.3864
     10 OR4        12.9659   17.0918   41.8154 O.3         1 MOL      -0.3401
     11 OR5        15.3585   16.0457   39.0698 O.3         1 MOL      -0.3407
     12 OR6        17.3520   16.1756   40.6445 O.3         1 MOL      -0.3924
     13 CV1        13.4441   17.3034   43.1618 C.3         1 MOL       0.1886
     14 CV2        13.4207   16.0964   44.1376 C.3         1 MOL       0.1370
     15 CV3        11.9623   15.6090   44.3495 C.3         1 MOL       0.1304
     16 CV4        11.0102   16.7659   44.8234 C.3         1 MOL       0.0334
     17 CV5        11.2657   18.0639   43.9770 C.3         1 MOL       0.1038
     18 CV6        10.6755   19.3352   44.6423 C.3         1 MOL      -0.0332
     19 OV2        14.2786   15.0512   43.6853 O.3         1 MOL      -0.3840
     20 OV3        12.0005   14.5311   45.2855 O.3         1 MOL      -0.3834
     21 NV4         9.5248   16.5315   44.8779 N.4         1 MOL       0.2370
     22 OV5        12.6676   18.3505   43.7710 O.3         1 MOL      -0.3401
     23 CQ1         3.5986   15.1729   43.1313 C.3         1 MOL       0.1883
     24 CQ2         3.8052   13.8881   42.2446 C.3         1 MOL       0.1341
     25 CQ3         3.2429   14.0324   40.7977 C.3         1 MOL       0.1144
     26 CQ4         3.5394   15.4318   40.1803 C.3         1 MOL       0.1184
     27 CQ5         3.1258   16.5694   41.1954 C.3         1 MOL       0.1134
     28 CQ6         1.9926   17.4622   40.6515 C.3         1 MOL       0.0730
     29 OQ2         5.1714   13.5018   42.1452 O.3         1 MOL      -0.3841
     30 OQ3         1.8323   13.7700   40.7913 O.3         1 MOL      -0.3864
     31 OQ4         4.9372   15.4947   39.8205 O.3         1 MOL      -0.3401
     32 OQ5         2.6800   16.0757   42.4827 O.3         1 MOL      -0.3405
     33 OQ6         1.0304   16.7091   39.9079 O.3         1 MOL      -0.3924
     34 CW1         5.4502   16.6013   39.0322 C.3         1 MOL       0.1884
     35 CW2         4.9234   16.7012   37.5716 C.3         1 MOL       0.1341
     36 CW3         5.3231   15.4165   36.7974 C.3         1 MOL       0.1141
     37 CW4         6.8578   15.2152   36.8399 C.3         1 MOL       0.1119
     38 CW5         7.4093   15.3156   38.3013 C.3         1 MOL       0.1130
     39 CW6         8.9550   15.3724   38.3301 C.3         1 MOL       0.0730
     40 OW2         3.5263   16.9661   37.5054 O.3         1 MOL      -0.3841
     41 OW3         4.8671   15.5046   35.4464 O.3         1 MOL      -0.3864
     42 OW4         7.1844   13.9538   36.2573 O.3         1 MOL      -0.3865
     43 OW5         6.8874   16.4902   38.9728 O.3         1 MOL      -0.3405
     44 OW6         9.4460   16.6129   38.8405 O.3         1 MOL      -0.3924
     45 CY1         8.8745   15.1880   44.8907 C.3         1 MOL       0.0073
     46 CY2         8.3400   14.7857   43.4825 C.3         1 MOL       0.1257
     47 OY2         9.3531   14.9230   42.4903 O.3         1 MOL      -0.3835
     48 CY3         7.0946   15.6210   43.0845 C.3         1 MOL       0.1127
     49 OY3         6.7743   15.3683   41.7224 O.3         1 MOL      -0.3864
     50 CY4         5.9384   15.3483   44.1063 C.3         1 MOL       0.0953
     51 OY4         4.7459   15.9735   43.5725 O.3         1 MOL      -0.3424
     52 CY5         6.3991   15.8884   45.5108 C.3         1 MOL       0.0162
     53 CY6         7.7150   15.1393   45.9313 C.3         1 MOL       0.0002
     54 CY7         5.3502   15.8635   46.6822 C.3         1 MOL       0.0497
     55 OY7         4.0966   15.2508   46.3956 O.3         1 MOL      -0.3946
     56 H1         14.8581   15.4303   37.1783 H           1 MOL       0.0935
     57 H2         13.3393   14.3257   38.7457 H           1 MOL       0.0671
     58 H3         12.2356   17.1096   39.3712 H           1 MOL       0.0648
     59 H4         13.7563   15.2375   41.2305 H           1 MOL       0.0651
     60 H5         14.8458   17.8309   39.9877 H           1 MOL       0.0647
     61 H6         15.9230   16.0243   42.0926 H           1 MOL       0.0584
     62 H7         16.3905   17.6745   41.6447 H           1 MOL       0.0584
     63 H8         15.0852   17.7577   37.4108 H           1 MOL       0.2126
     64 H9         11.9127   16.2186   37.1996 H           1 MOL       0.2101
     65 H10        11.0544   15.9679   40.9021 H           1 MOL       0.2100
     66 H11        18.0260   16.1917   41.3585 H           1 MOL       0.2095
     67 H12        14.4530   17.6928   43.1135 H           1 MOL       0.0938
     68 H13        13.8191   16.4335   45.1018 H           1 MOL       0.0672
     69 H14        11.6163   15.2040   43.4023 H           1 MOL       0.0679
     70 H15        11.3112   16.9811   45.8501 H           1 MOL       0.0903
     71 H16        10.7856   17.9471   42.9999 H           1 MOL       0.0652
     72 H17        10.8594   20.2036   44.0060 H           1 MOL       0.0257
     73 H18        11.1453   19.5109   45.6140 H           1 MOL       0.0257
     74 H19         9.5973   19.2370   44.7821 H           1 MOL       0.0257
     75 H20        14.5567   14.5610   44.4842 H           1 MOL       0.2101
     76 H21        12.3350   14.9177   46.1201 H           1 MOL       0.2102
     77 H22         9.1257   17.0297   44.0793 H           1 MOL       0.2022
     78 H23         9.1792   17.0269   45.7071 H           1 MOL       0.2022
     79 H24         3.0726   14.8498   44.0256 H           1 MOL       0.0938
     80 H25         3.2856   13.0583   42.7252 H           1 MOL       0.0671
     81 H26         3.6915   13.2664   40.1500 H           1 MOL       0.0648
     82 H27         2.9349   15.4900   39.2690 H           1 MOL       0.0651
     83 H28         3.9803   17.2262   41.3819 H           1 MOL       0.0647
     84 H29         2.4128   18.2384   40.0044 H           1 MOL       0.0584
     85 H30         1.4756   17.9460   41.4879 H           1 MOL       0.0584
     86 H31         5.2381   12.5951   42.5240 H           1 MOL       0.2101
     87 H32         1.4368   14.4706   41.3554 H           1 MOL       0.2100
     88 H33         0.3466   17.3597   39.6304 H           1 MOL       0.2095
     89 H34         5.2430   17.5438   39.5392 H           1 MOL       0.0938
     90 H35         5.4183   17.5559   37.0947 H           1 MOL       0.0671
     91 H36         4.8212   14.5529   37.2457 H           1 MOL       0.0648
     92 H37         7.3172   15.9978   36.2277 H           1 MOL       0.0647
     93 H38         7.0947   14.4280   38.8605 H           1 MOL       0.0647
     94 H39         9.3750   15.2542   37.3279 H           1 MOL       0.0584
     95 H40         9.3488   14.5590   38.9513 H           1 MOL       0.0584
     96 H41         3.4508   17.9040   37.7891 H           1 MOL       0.2101
     97 H42         5.3140   16.2885   35.0628 H           1 MOL       0.2100
     98 H43         8.1460   13.9865   36.0780 H           1 MOL       0.2100
     99 H44         9.1599   16.6359   39.7749 H           1 MOL       0.2095
    100 H45         9.5912   14.4320   45.2037 H           1 MOL       0.0877
    101 H46         8.0640   13.7214   43.5002 H           1 MOL       0.0677
    102 H47         9.0736   14.3380   41.7548 H           1 MOL       0.2102
    103 H48         7.3502   16.6831   43.1030 H           1 MOL       0.0647
    104 H49         5.9124   15.8256   41.5837 H           1 MOL       0.2100
    105 H50         5.7854   14.2675   44.2179 H           1 MOL       0.0627
    106 H51         6.6698   16.9419   45.3722 H           1 MOL       0.0351
    107 H52         8.0862   15.5432   46.8705 H           1 MOL       0.0325
    108 H53         7.4697   14.0931   46.1184 H           1 MOL       0.0325
    109 H54         5.1281   16.8912   46.9948 H           1 MOL       0.0561
    110 H55         5.7502   15.3473   47.5661 H           1 MOL       0.0561
    111 H56         4.3190   14.3477   46.0798 H           1 MOL       0.2094
@<TRIPOS>BOND
     1     2     1   1
     2     1     7   1
     3    11     1   1
     4     3     2   1
     5     2     8   1
     6     4     3   1
     7     3     9   1
     8     4     5   1
     9    10     4   1
    10     5     6   1
    11     5    11   1
    12     6    12   1
    13    13    10   1
    14    14    13   1
    15    22    13   1
    16    15    14   1
    17    14    19   1
    18    16    15   1
    19    15    20   1
    20    16    17   1
    21    21    16   1
    22    17    18   1
    23    17    22   1
    24    45    21   1
    25    23    24   1
    26    23    32   1
    27    51    23   1
    28    24    25   1
    29    24    29   1
    30    25    26   1
    31    25    30   1
    32    27    26   1
    33    26    31   1
    34    27    28   1
    35    32    27   1
    36    28    33   1
    37    31    34   1
    38    34    35   1
    39    34    43   1
    40    35    36   1
    41    35    40   1
    42    36    37   1
    43    36    41   1
    44    38    37   1
    45    37    42   1
    46    38    39   1
    47    43    38   1
    48    39    44   1
    49    46    45   1
    50    45    53   1
    51    46    47   1
    52    48    46   1
    53    48    49   1
    54    50    48   1
    55    50    51   1
    56    50    52   1
    57    52    53   1
    58    52    54   1
    59    54    55   1
    60     1    56   1
    61     2    57   1
    62     3    58   1
    63     4    59   1
    64     5    60   1
    65     6    61   1
    66     6    62   1
    67     7    63   1
    68     8    64   1
    69     9    65   1
    70    12    66   1
    71    13    67   1
    72    14    68   1
    73    15    69   1
    74    16    70   1
    75    17    71   1
    76    18    72   1
    77    18    73   1
    78    18    74   1
    79    19    75   1
    80    20    76   1
    81    21    77   1
    82    21    78   1
    83    23    79   1
    84    24    80   1
    85    25    81   1
    86    26    82   1
    87    27    83   1
    88    28    84   1
    89    28    85   1
    90    29    86   1
    91    30    87   1
    92    33    88   1
    93    34    89   1
    94    35    90   1
    95    36    91   1
    96    37    92   1
    97    38    93   1
    98    39    94   1
    99    39    95   1
   100    40    96   1
   101    41    97   1
   102    42    98   1
   103    44    99   1
   104    45   100   1
   105    46   101   1
   106    47   102   1
   107    48   103   1
   108    49   104   1
   109    50   105   1
   110    52   106   1
   111    53   107   1
   112    53   108   1
   113    54   109   1
   114    54   110   1
   115    55   111   1
@<TRIPOS>SUBSTRUCTURE
     1  MOL      1

