@<TRIPOS>MOLECULE
1xd0_ligand_007
   111   115
SMALL
GAST_HUCK
****
This file was generated by PARSER (from files_GN.cpp)

@<TRIPOS>ATOM
      1 CR1         1.8766   16.5281   39.7618 C.3         1 MOL       0.1854
      2 CR2         2.3196   16.9095   41.1952 C.3         1 MOL       0.1339
      3 CR3         3.0080   15.7099   41.9023 C.3         1 MOL       0.1144
      4 CR4         4.1027   15.0289   41.0219 C.3         1 MOL       0.1184
      5 CR5         3.7130   14.9100   39.5066 C.3         1 MOL       0.1134
      6 CR6         3.0403   13.5701   39.0994 C.3         1 MOL       0.0730
      7 OR1         1.3305   17.6610   39.0873 O.3         1 MOL      -0.3649
      8 OR2         3.2135   18.0187   41.1160 O.3         1 MOL      -0.3841
      9 OR3         2.0413   14.7633   42.3537 O.3         1 MOL      -0.3864
     10 OR4         5.3104   15.8180   41.1641 O.3         1 MOL      -0.3401
     11 OR5         2.9980   16.0551   38.9955 O.3         1 MOL      -0.3407
     12 OR6         2.1609   13.0452   40.0866 O.3         1 MOL      -0.3924
     13 CV1         6.5813   15.1227   41.1938 C.3         1 MOL       0.1886
     14 CV2         6.9150   14.5145   42.5854 C.3         1 MOL       0.1370
     15 CV3         7.2797   15.6194   43.6191 C.3         1 MOL       0.1304
     16 CV4         8.4163   16.5267   43.0548 C.3         1 MOL       0.0334
     17 CV5         7.9485   17.1113   41.6792 C.3         1 MOL       0.1038
     18 CV6         9.0329   17.9511   40.9551 C.3         1 MOL      -0.0332
     19 OV2         5.8395   13.7179   43.0770 O.3         1 MOL      -0.3840
     20 OV3         7.6744   15.0087   44.8504 O.3         1 MOL      -0.3834
     21 NV4         8.8217   17.5901   44.0321 N.4         1 MOL       0.2370
     22 OV5         7.6177   16.0316   40.7743 O.3         1 MOL      -0.3401
     23 CQ1        14.0172   16.7949   41.3611 C.3         1 MOL       0.1883
     24 CQ2        15.0761   17.6826   40.6573 C.3         1 MOL       0.1341
     25 CQ3        16.0358   16.8058   39.8095 C.3         1 MOL       0.1144
     26 CQ4        15.2657   15.8833   38.8233 C.3         1 MOL       0.1184
     27 CQ5        14.0866   15.1272   39.5228 C.3         1 MOL       0.1134
     28 CQ6        14.5044   13.8129   40.2357 C.3         1 MOL       0.0730
     29 OQ2        14.4405   18.6541   39.8220 O.3         1 MOL      -0.3841
     30 OQ3        16.8718   16.0168   40.6590 O.3         1 MOL      -0.3864
     31 OQ4        14.7086   16.6702   37.7381 O.3         1 MOL      -0.3401
     32 OQ5        13.3078   15.9862   40.3968 O.3         1 MOL      -0.3405
     33 OQ6        15.1571   12.8983   39.3530 O.3         1 MOL      -0.3924
     34 CW1        15.3001   16.4830   36.4274 C.3         1 MOL       0.1884
     35 CW2        14.5668   17.3472   35.3648 C.3         1 MOL       0.1341
     36 CW3        13.1452   16.7846   35.0840 C.3         1 MOL       0.1141
     37 CW4        13.1953   15.2675   34.7393 C.3         1 MOL       0.1119
     38 CW5        13.9903   14.5006   35.8444 C.3         1 MOL       0.1130
     39 CW6        14.1660   12.9847   35.5660 C.3         1 MOL       0.0730
     40 OW2        14.4929   18.7001   35.8131 O.3         1 MOL      -0.3841
     41 OW3        12.5376   17.4919   34.0018 O.3         1 MOL      -0.3864
     42 OW4        11.8667   14.7536   34.6129 O.3         1 MOL      -0.3865
     43 OW5        15.3022   15.0917   36.0206 O.3         1 MOL      -0.3405
     44 OW6        15.4028   12.6862   34.9225 O.3         1 MOL      -0.3924
     45 CY1         9.9893   17.4232   44.9663 C.3         1 MOL       0.0073
     46 CY2        10.9185   18.6712   44.9290 C.3         1 MOL       0.1257
     47 OY2        10.1725   19.8559   45.1748 O.3         1 MOL      -0.3835
     48 CY3        11.7052   18.7349   43.5884 C.3         1 MOL       0.1127
     49 OY3        12.5066   19.9208   43.5426 O.3         1 MOL      -0.3864
     50 CY4        12.6242   17.4913   43.3576 C.3         1 MOL       0.0953
     51 OY4        13.0381   17.6474   41.9769 O.3         1 MOL      -0.3424
     52 CY5        11.9146   16.1215   43.6752 C.3         1 MOL       0.0162
     53 CY6        10.9160   16.1721   44.8833 C.3         1 MOL       0.0002
     54 CY7        12.9099   14.9363   43.9306 C.3         1 MOL       0.0497
     55 OY7        13.9426   15.2650   44.8622 O.3         1 MOL      -0.3946
     56 H1          1.0899   15.7702   39.7953 H           1 MOL       0.0935
     57 H2          1.4424   17.2218   41.7705 H           1 MOL       0.0671
     58 H3          3.4786   16.0759   42.8195 H           1 MOL       0.0648
     59 H4          4.2673   14.0272   41.4288 H           1 MOL       0.0651
     60 H5          4.6424   14.9189   38.9314 H           1 MOL       0.0647
     61 H6          3.8139   12.8219   38.9036 H           1 MOL       0.0584
     62 H7          2.4713   13.7139   38.1736 H           1 MOL       0.0584
     63 H8          2.0859   18.2705   38.9386 H           1 MOL       0.2126
     64 H9          2.9482   18.6129   41.8446 H           1 MOL       0.2101
     65 H10         1.6031   14.4193   41.5491 H           1 MOL       0.2100
     66 H11         1.6887   12.3083   39.6408 H           1 MOL       0.2095
     67 H12         6.5886   14.3106   40.4598 H           1 MOL       0.0938
     68 H13         7.7836   13.8571   42.4706 H           1 MOL       0.0672
     69 H14         6.3935   16.2315   43.8274 H           1 MOL       0.0679
     70 H15         9.2689   15.8891   42.8320 H           1 MOL       0.0903
     71 H16         7.0743   17.7538   41.8191 H           1 MOL       0.0652
     72 H17         8.6845   18.2449   39.9615 H           1 MOL       0.0257
     73 H18         9.9566   17.3740   40.8391 H           1 MOL       0.0257
     74 H19         9.2516   18.8650   41.5109 H           1 MOL       0.0257
     75 H20         5.8407   12.9100   42.5162 H           1 MOL       0.2101
     76 H21         7.2870   14.1063   44.8400 H           1 MOL       0.2102
     77 H22         8.0081   17.7763   44.6286 H           1 MOL       0.2022
     78 H23         8.9670   18.4523   43.5056 H           1 MOL       0.2022
     79 H24        14.5285   16.1728   42.1037 H           1 MOL       0.0938
     80 H25        15.6491   18.2165   41.4235 H           1 MOL       0.0671
     81 H26        16.6974   17.4543   39.2354 H           1 MOL       0.0648
     82 H27        15.9753   15.1423   38.4386 H           1 MOL       0.0651
     83 H28        13.3835   14.8182   38.7420 H           1 MOL       0.0647
     84 H29        13.6038   13.3269   40.6227 H           1 MOL       0.0584
     85 H30        15.1767   14.0237   41.0664 H           1 MOL       0.0584
     86 H31        14.0272   19.2978   40.4387 H           1 MOL       0.2101
     87 H32        17.5094   16.6474   41.0497 H           1 MOL       0.2100
     88 H33        14.8844   13.1634   38.4503 H           1 MOL       0.2095
     89 H34        16.3417   16.8136   36.4620 H           1 MOL       0.0938
     90 H35        15.1508   17.3309   34.4414 H           1 MOL       0.0671
     91 H36        12.5181   16.9321   35.9722 H           1 MOL       0.0648
     92 H37        13.6998   15.1403   33.7756 H           1 MOL       0.0647
     93 H38        13.4278   14.5745   36.7817 H           1 MOL       0.0647
     94 H39        13.3407   12.6111   34.9542 H           1 MOL       0.0584
     95 H40        14.1458   12.4481   36.5191 H           1 MOL       0.0584
     96 H41        14.2864   19.2266   35.0125 H           1 MOL       0.2101
     97 H42        12.2528   18.3522   34.3778 H           1 MOL       0.2100
     98 H43        11.4710   14.8234   35.5087 H           1 MOL       0.2100
     99 H44        15.3274   13.0744   34.0263 H           1 MOL       0.2095
    100 H45         9.5413   17.3915   45.9621 H           1 MOL       0.0877
    101 H46        11.6438   18.6118   45.7431 H           1 MOL       0.0677
    102 H47         9.8867   20.1740   44.2953 H           1 MOL       0.2102
    103 H48        10.9863   18.8047   42.7656 H           1 MOL       0.0647
    104 H49        11.9403   20.6031   43.1117 H           1 MOL       0.2100
    105 H50        13.4998   17.6091   44.0009 H           1 MOL       0.0627
    106 H51        11.3398   15.8601   42.7843 H           1 MOL       0.0351
    107 H52        10.3058   15.2695   44.8786 H           1 MOL       0.0325
    108 H53        11.4926   16.1403   45.8127 H           1 MOL       0.0325
    109 H54        13.3909   14.6406   43.0039 H           1 MOL       0.0561
    110 H55        12.3749   14.0550   44.3039 H           1 MOL       0.0561
    111 H56        13.5063   15.3268   45.7429 H           1 MOL       0.2094
@<TRIPOS>BOND
     1     2     1   1
     2     1     7   1
     3    11     1   1
     4     3     2   1
     5     2     8   1
     6     4     3   1
     7     3     9   1
     8     4     5   1
     9    10     4   1
    10     5     6   1
    11     5    11   1
    12     6    12   1
    13    13    10   1
    14    14    13   1
    15    22    13   1
    16    15    14   1
    17    14    19   1
    18    16    15   1
    19    15    20   1
    20    16    17   1
    21    21    16   1
    22    17    18   1
    23    17    22   1
    24    45    21   1
    25    23    24   1
    26    23    32   1
    27    51    23   1
    28    24    25   1
    29    24    29   1
    30    25    26   1
    31    25    30   1
    32    27    26   1
    33    26    31   1
    34    27    28   1
    35    32    27   1
    36    28    33   1
    37    31    34   1
    38    34    35   1
    39    34    43   1
    40    35    36   1
    41    35    40   1
    42    36    37   1
    43    36    41   1
    44    38    37   1
    45    37    42   1
    46    38    39   1
    47    43    38   1
    48    39    44   1
    49    46    45   1
    50    45    53   1
    51    46    47   1
    52    48    46   1
    53    48    49   1
    54    50    48   1
    55    50    51   1
    56    50    52   1
    57    52    53   1
    58    52    54   1
    59    54    55   1
    60     1    56   1
    61     2    57   1
    62     3    58   1
    63     4    59   1
    64     5    60   1
    65     6    61   1
    66     6    62   1
    67     7    63   1
    68     8    64   1
    69     9    65   1
    70    12    66   1
    71    13    67   1
    72    14    68   1
    73    15    69   1
    74    16    70   1
    75    17    71   1
    76    18    72   1
    77    18    73   1
    78    18    74   1
    79    19    75   1
    80    20    76   1
    81    21    77   1
    82    21    78   1
    83    23    79   1
    84    24    80   1
    85    25    81   1
    86    26    82   1
    87    27    83   1
    88    28    84   1
    89    28    85   1
    90    29    86   1
    91    30    87   1
    92    33    88   1
    93    34    89   1
    94    35    90   1
    95    36    91   1
    96    37    92   1
    97    38    93   1
    98    39    94   1
    99    39    95   1
   100    40    96   1
   101    41    97   1
   102    42    98   1
   103    44    99   1
   104    45   100   1
   105    46   101   1
   106    47   102   1
   107    48   103   1
   108    49   104   1
   109    50   105   1
   110    52   106   1
   111    53   107   1
   112    53   108   1
   113    54   109   1
   114    54   110   1
   115    55   111   1
@<TRIPOS>SUBSTRUCTURE
     1  MOL      1

