@<TRIPOS>MOLECULE
1xd0_ligand_011
   111   115
SMALL
GAST_HUCK
****
This file was generated by PARSER (from files_GN.cpp)

@<TRIPOS>ATOM
      1 CR1         5.6018   13.3822   37.6059 C.3         1 MOL       0.1854
      2 CR2         6.9823   12.8901   38.1416 C.3         1 MOL       0.1339
      3 CR3         7.4906   13.7867   39.3056 C.3         1 MOL       0.1144
      4 CR4         7.3929   15.2973   38.9329 C.3         1 MOL       0.1184
      5 CR5         5.9623   15.6564   38.4194 C.3         1 MOL       0.1134
      6 CR6         5.8225   17.1275   37.9470 C.3         1 MOL       0.0730
      7 OR1         4.5391   13.0695   38.5089 O.3         1 MOL      -0.3649
      8 OR2         6.8745   11.5359   38.5958 O.3         1 MOL      -0.3841
      9 OR3         8.8533   13.4740   39.5996 O.3         1 MOL      -0.3864
     10 OR4         7.8413   16.2323   39.9404 O.3         1 MOL      -0.3401
     11 OR5         5.6141   14.7985   37.3069 O.3         1 MOL      -0.3407
     12 OR6         6.8754   17.5220   37.0623 O.3         1 MOL      -0.3924
     13 CV1         7.4026   16.1285   41.3141 C.3         1 MOL       0.1886
     14 CV2         7.0917   17.5473   41.8689 C.3         1 MOL       0.1370
     15 CV3         6.9597   17.5405   43.4222 C.3         1 MOL       0.1304
     16 CV4         8.1629   16.8171   44.1046 C.3         1 MOL       0.0334
     17 CV5         8.4182   15.4123   43.4592 C.3         1 MOL       0.1038
     18 CV6         7.4716   14.2806   43.9273 C.3         1 MOL      -0.0332
     19 OV2         8.1022   18.4716   41.4549 O.3         1 MOL      -0.3840
     20 OV3         5.7120   16.9797   43.8225 O.3         1 MOL      -0.3834
     21 NV4         9.3516   17.7105   43.9592 N.4         1 MOL       0.2370
     22 OV5         8.4914   15.5034   42.0232 O.3         1 MOL      -0.3401
     23 CQ1        13.9443   18.3721   40.9721 C.3         1 MOL       0.1883
     24 CQ2        13.2773   18.6674   39.5977 C.3         1 MOL       0.1341
     25 CQ3        13.2318   17.3863   38.7158 C.3         1 MOL       0.1144
     26 CQ4        14.6499   16.7363   38.6007 C.3         1 MOL       0.1184
     27 CQ5        15.2292   16.5121   40.0322 C.3         1 MOL       0.1134
     28 CQ6        16.6881   15.9885   40.0102 C.3         1 MOL       0.0730
     29 OQ2        11.9609   19.1827   39.8124 O.3         1 MOL      -0.3841
     30 OQ3        12.7181   17.7058   37.4214 O.3         1 MOL      -0.3864
     31 OQ4        14.5894   15.4458   37.9462 O.3         1 MOL      -0.3401
     32 OQ5        15.2284   17.7420   40.7855 O.3         1 MOL      -0.3405
     33 OQ6        17.1942   15.7698   41.3335 O.3         1 MOL      -0.3924
     34 CW1        14.6240   15.4089   36.4948 C.3         1 MOL       0.1884
     35 CW2        13.7546   14.2223   36.0040 C.3         1 MOL       0.1341
     36 CW3        14.4549   12.8787   36.3202 C.3         1 MOL       0.1141
     37 CW4        15.8789   12.8610   35.6934 C.3         1 MOL       0.1119
     38 CW5        16.7036   14.0997   36.1683 C.3         1 MOL       0.1130
     39 CW6        18.0546   14.2203   35.4014 C.3         1 MOL       0.0730
     40 OW2        12.4633   14.2470   36.6092 O.3         1 MOL      -0.3841
     41 OW3        13.6683   11.7974   35.8123 O.3         1 MOL      -0.3864
     42 OW4        16.5681   11.6603   36.0640 O.3         1 MOL      -0.3865
     43 OW5        15.9746   15.3360   35.9752 O.3         1 MOL      -0.3405
     44 OW6        19.1621   14.2928   36.2988 O.3         1 MOL      -0.3924
     45 CY1        10.4309   17.7738   44.9995 C.3         1 MOL       0.0073
     46 CY2        11.2812   19.0562   44.7507 C.3         1 MOL       0.1257
     47 OY2        10.4583   20.2164   44.8960 O.3         1 MOL      -0.3835
     48 CY3        11.9649   19.0064   43.3504 C.3         1 MOL       0.1127
     49 OY3        12.7626   20.1804   43.1930 O.3         1 MOL      -0.3864
     50 CY4        12.8347   17.7214   43.1462 C.3         1 MOL       0.0953
     51 OY4        13.0630   17.5210   41.7376 O.3         1 MOL      -0.3424
     52 CY5        12.1520   16.3949   43.6443 C.3         1 MOL       0.0162
     53 CY6        11.4089   16.5643   44.9998 C.3         1 MOL       0.0002
     54 CY7        13.1519   15.1968   43.7237 C.3         1 MOL       0.0497
     55 OY7        14.3924   15.5444   44.3487 O.3         1 MOL      -0.3946
     56 H1          5.3908   12.8506   36.6716 H           1 MOL       0.0935
     57 H2          7.7101   12.9236   37.3193 H           1 MOL       0.0671
     58 H3          6.8847   13.5788   40.1899 H           1 MOL       0.0648
     59 H4          8.0742   15.4518   38.0941 H           1 MOL       0.0651
     60 H5          5.2404   15.5097   39.2325 H           1 MOL       0.0647
     61 H6          5.8070   17.8005   38.8126 H           1 MOL       0.0584
     62 H7          4.8723   17.2429   37.4134 H           1 MOL       0.0584
     63 H8          3.7518   13.5019   38.1142 H           1 MOL       0.2126
     64 H9          7.2224   10.9841   37.8593 H           1 MOL       0.2101
     65 H10         8.9088   12.4984   39.5520 H           1 MOL       0.2100
     66 H11         7.6707   17.5939   37.6310 H           1 MOL       0.2095
     67 H12         6.4944   15.5223   41.3968 H           1 MOL       0.0938
     68 H13         6.1516   17.8907   41.4299 H           1 MOL       0.0672
     69 H14         6.9214   18.5823   43.7640 H           1 MOL       0.0679
     70 H15         7.9386   16.7154   45.1685 H           1 MOL       0.0903
     71 H16         9.4124   15.0884   43.7702 H           1 MOL       0.0652
     72 H17         7.8527   13.3291   43.5620 H           1 MOL       0.0257
     73 H18         6.4554   14.3922   43.5488 H           1 MOL       0.0257
     74 H19         7.4380   14.2390   45.0148 H           1 MOL       0.0257
     75 H20         7.7918   19.3477   41.7716 H           1 MOL       0.2101
     76 H21         5.5067   16.2578   43.1968 H           1 MOL       0.2102
     77 H22         9.0089   18.6760   43.8805 H           1 MOL       0.2022
     78 H23         9.7924   17.5015   43.0585 H           1 MOL       0.2022
     79 H24        14.1150   19.3297   41.4796 H           1 MOL       0.0938
     80 H25        13.8579   19.4364   39.0767 H           1 MOL       0.0671
     81 H26        12.5476   16.6661   39.1762 H           1 MOL       0.0648
     82 H27        15.3166   17.4215   38.0654 H           1 MOL       0.0651
     83 H28        14.6285   15.7680   40.5545 H           1 MOL       0.0647
     84 H29        17.3398   16.7105   39.4979 H           1 MOL       0.0584
     85 H30        16.7258   15.0338   39.4726 H           1 MOL       0.0584
     86 H31        11.7097   19.6193   38.9740 H           1 MOL       0.2101
     87 H32        11.9955   18.3498   37.5713 H           1 MOL       0.2100
     88 H33        17.6570   16.6099   41.5537 H           1 MOL       0.2095
     89 H34        14.1845   16.3098   36.0604 H           1 MOL       0.0938
     90 H35        13.6142   14.3028   34.9244 H           1 MOL       0.0671
     91 H36        14.5355   12.7559   37.4070 H           1 MOL       0.0648
     92 H37        15.7851   12.8819   34.5986 H           1 MOL       0.0647
     93 H38        16.9121   13.9767   37.2331 H           1 MOL       0.0647
     94 H39        18.0564   15.1214   34.7733 H           1 MOL       0.0584
     95 H40        18.2299   13.3551   34.7498 H           1 MOL       0.0584
     96 H41        12.0280   15.0548   36.2685 H           1 MOL       0.2101
     97 H42        13.9262   11.0244   36.3599 H           1 MOL       0.2100
     98 H43        16.0924   10.9326   35.6044 H           1 MOL       0.2100
     99 H44        19.9308   14.5139   35.7248 H           1 MOL       0.2095
    100 H45         9.9708   17.8517   45.9917 H           1 MOL       0.0877
    101 H46        12.0514   19.1308   45.5276 H           1 MOL       0.0677
    102 H47        11.0498   20.9664   44.6869 H           1 MOL       0.2102
    103 H48        11.1894   19.0453   42.5812 H           1 MOL       0.0647
    104 H49        12.1825   20.8344   42.7501 H           1 MOL       0.2100
    105 H50        13.7828   17.8641   43.6766 H           1 MOL       0.0627
    106 H51        11.4023   16.1070   42.9056 H           1 MOL       0.0351
    107 H52        10.8634   15.6575   45.2602 H           1 MOL       0.0325
    108 H53        12.1575   16.7094   45.7855 H           1 MOL       0.0325
    109 H54        13.3805   14.8269   42.7215 H           1 MOL       0.0561
    110 H55        12.6960   14.3653   44.2790 H           1 MOL       0.0561
    111 H56        14.7313   14.7086   44.7330 H           1 MOL       0.2094
@<TRIPOS>BOND
     1     2     1   1
     2     1     7   1
     3    11     1   1
     4     3     2   1
     5     2     8   1
     6     4     3   1
     7     3     9   1
     8     4     5   1
     9    10     4   1
    10     5     6   1
    11     5    11   1
    12     6    12   1
    13    13    10   1
    14    14    13   1
    15    22    13   1
    16    15    14   1
    17    14    19   1
    18    16    15   1
    19    15    20   1
    20    16    17   1
    21    21    16   1
    22    17    18   1
    23    17    22   1
    24    45    21   1
    25    23    24   1
    26    23    32   1
    27    51    23   1
    28    24    25   1
    29    24    29   1
    30    25    26   1
    31    25    30   1
    32    27    26   1
    33    26    31   1
    34    27    28   1
    35    32    27   1
    36    28    33   1
    37    31    34   1
    38    34    35   1
    39    34    43   1
    40    35    36   1
    41    35    40   1
    42    36    37   1
    43    36    41   1
    44    38    37   1
    45    37    42   1
    46    38    39   1
    47    43    38   1
    48    39    44   1
    49    46    45   1
    50    45    53   1
    51    46    47   1
    52    48    46   1
    53    48    49   1
    54    50    48   1
    55    50    51   1
    56    50    52   1
    57    52    53   1
    58    52    54   1
    59    54    55   1
    60     1    56   1
    61     2    57   1
    62     3    58   1
    63     4    59   1
    64     5    60   1
    65     6    61   1
    66     6    62   1
    67     7    63   1
    68     8    64   1
    69     9    65   1
    70    12    66   1
    71    13    67   1
    72    14    68   1
    73    15    69   1
    74    16    70   1
    75    17    71   1
    76    18    72   1
    77    18    73   1
    78    18    74   1
    79    19    75   1
    80    20    76   1
    81    21    77   1
    82    21    78   1
    83    23    79   1
    84    24    80   1
    85    25    81   1
    86    26    82   1
    87    27    83   1
    88    28    84   1
    89    28    85   1
    90    29    86   1
    91    30    87   1
    92    33    88   1
    93    34    89   1
    94    35    90   1
    95    36    91   1
    96    37    92   1
    97    38    93   1
    98    39    94   1
    99    39    95   1
   100    40    96   1
   101    41    97   1
   102    42    98   1
   103    44    99   1
   104    45   100   1
   105    46   101   1
   106    47   102   1
   107    48   103   1
   108    49   104   1
   109    50   105   1
   110    52   106   1
   111    53   107   1
   112    53   108   1
   113    54   109   1
   114    54   110   1
   115    55   111   1
@<TRIPOS>SUBSTRUCTURE
     1  MOL      1

