@<TRIPOS>MOLECULE
1xd0_ligand_052
   111   115
SMALL
GAST_HUCK
****
This file was generated by PARSER (from files_GN.cpp)

@<TRIPOS>ATOM
      1 CR1        15.7050   15.2954   38.5679 C.3         1 MOL       0.1854
      2 CR2        16.2211   16.4173   39.5050 C.3         1 MOL       0.1339
      3 CR3        15.1637   16.7733   40.5897 C.3         1 MOL       0.1144
      4 CR4        13.7781   17.0610   39.9386 C.3         1 MOL       0.1184
      5 CR5        13.3717   15.9197   38.9598 C.3         1 MOL       0.1134
      6 CR6        12.1077   16.2533   38.1285 C.3         1 MOL       0.0730
      7 OR1        15.6251   14.0302   39.2271 O.3         1 MOL      -0.3649
      8 OR2        17.4440   15.9994   40.1045 O.3         1 MOL      -0.3841
      9 OR3        15.5620   17.9279   41.3327 O.3         1 MOL      -0.3864
     10 OR4        12.6893   17.4104   40.8259 O.3         1 MOL      -0.3401
     11 OR5        14.4271   15.6475   38.0073 O.3         1 MOL      -0.3407
     12 OR6        12.3614   17.2702   37.1576 O.3         1 MOL      -0.3924
     13 CV1        12.6636   17.1511   42.2471 C.3         1 MOL       0.1886
     14 CV2        12.3870   15.6696   42.6453 C.3         1 MOL       0.1370
     15 CV3        12.1093   15.5548   44.1763 C.3         1 MOL       0.1304
     16 CV4        11.0394   16.5898   44.6660 C.3         1 MOL       0.0334
     17 CV5        11.3864   18.0333   44.1619 C.3         1 MOL       0.1038
     18 CV6        12.5247   18.7720   44.9211 C.3         1 MOL      -0.0332
     19 OV2        11.2952   15.1638   41.8776 O.3         1 MOL      -0.3840
     20 OV3        13.3368   15.6950   44.8906 O.3         1 MOL      -0.3834
     21 NV4         9.7127   16.0646   44.2161 N.4         1 MOL       0.2370
     22 OV5        11.6145   18.0166   42.7362 O.3         1 MOL      -0.3401
     23 CQ1         5.6847   14.5413   40.0411 C.3         1 MOL       0.1883
     24 CQ2         6.2053   13.9526   38.6899 C.3         1 MOL       0.1341
     25 CQ3         5.1198   13.9930   37.5668 C.3         1 MOL       0.1144
     26 CQ4         4.4706   15.4044   37.4783 C.3         1 MOL       0.1184
     27 CQ5         3.9199   15.8362   38.8758 C.3         1 MOL       0.1134
     28 CQ6         2.6329   15.1057   39.3718 C.3         1 MOL       0.0730
     29 OQ2         7.3701   14.6763   38.2626 O.3         1 MOL      -0.3841
     30 OQ3         4.1515   12.9677   37.7786 O.3         1 MOL      -0.3864
     31 OQ4         5.5096   16.2378   36.9037 O.3         1 MOL      -0.3401
     32 OQ5         4.9899   15.7977   39.8427 O.3         1 MOL      -0.3405
     33 OQ6         2.0127   15.8352   40.4344 O.3         1 MOL      -0.3924
     34 CW1         5.7854   17.6283   37.2023 C.3         1 MOL       0.1884
     35 CW2         5.1391   18.6271   36.1999 C.3         1 MOL       0.1341
     36 CW3         5.8525   18.5968   34.8178 C.3         1 MOL       0.1141
     37 CW4         7.3931   18.7060   34.9631 C.3         1 MOL       0.1119
     38 CW5         7.9058   17.6401   35.9691 C.3         1 MOL       0.1130
     39 CW6         9.4111   17.7405   36.3095 C.3         1 MOL       0.0730
     40 OW2         3.7460   18.3427   36.0651 O.3         1 MOL      -0.3841
     41 OW3         5.3650   19.6620   34.0019 O.3         1 MOL      -0.3864
     42 OW4         7.9858   18.5350   33.6797 O.3         1 MOL      -0.3865
     43 OW5         7.2169   17.8005   37.2221 O.3         1 MOL      -0.3405
     44 OW6        10.1891   18.2289   35.2147 O.3         1 MOL      -0.3924
     45 CY1         8.4634   16.8797   44.2367 C.3         1 MOL       0.0073
     46 CY2         7.2375   15.9519   44.5038 C.3         1 MOL       0.1257
     47 OY2         7.4283   15.2333   45.7290 O.3         1 MOL      -0.3835
     48 CY3         6.9812   14.9629   43.3200 C.3         1 MOL       0.1127
     49 OY3         5.7830   14.2235   43.5642 O.3         1 MOL      -0.3864
     50 CY4         6.8234   15.6928   41.9596 C.3         1 MOL       0.0953
     51 OY4         6.8293   14.6997   40.9091 O.3         1 MOL      -0.3424
     52 CY5         7.9967   16.6846   41.6925 C.3         1 MOL       0.0162
     53 CY6         8.2197   17.6467   42.9021 C.3         1 MOL       0.0002
     54 CY7         7.7804   17.4807   40.3752 C.3         1 MOL       0.0497
     55 OY7         8.5999   18.6493   40.2719 O.3         1 MOL      -0.3946
     56 H1         16.4062   15.1856   37.7369 H           1 MOL       0.0935
     57 H2         16.4233   17.3057   38.9017 H           1 MOL       0.0671
     58 H3         15.0912   15.9325   41.2848 H           1 MOL       0.0648
     59 H4         13.9210   17.9568   39.3289 H           1 MOL       0.0651
     60 H5         13.1632   15.0115   39.5311 H           1 MOL       0.0647
     61 H6         11.2825   16.5642   38.7762 H           1 MOL       0.0584
     62 H7         11.7903   15.3544   37.5902 H           1 MOL       0.0584
     63 H8         16.5455   13.8149   39.4898 H           1 MOL       0.2126
     64 H9         17.7313   16.7388   40.6744 H           1 MOL       0.2101
     65 H10        16.5388   17.9043   41.3673 H           1 MOL       0.2100
     66 H11        11.8944   18.0759   37.4704 H           1 MOL       0.2095
     67 H12        13.6147   17.4775   42.6779 H           1 MOL       0.0938
     68 H13        13.2569   15.0571   42.4004 H           1 MOL       0.0672
     69 H14        11.7586   14.5417   44.3927 H           1 MOL       0.0679
     70 H15        11.0197   16.5935   45.7599 H           1 MOL       0.0903
     71 H16        10.5114   18.6647   44.3279 H           1 MOL       0.0652
     72 H17        12.7084   19.7421   44.4473 H           1 MOL       0.0257
     73 H18        13.4525   18.2068   44.9113 H           1 MOL       0.0257
     74 H19        12.2332   18.9475   45.9592 H           1 MOL       0.0257
     75 H20        11.3953   14.1896   41.9009 H           1 MOL       0.2101
     76 H21        13.1109   15.5645   45.8362 H           1 MOL       0.2102
     77 H22         9.5368   15.2432   44.8044 H           1 MOL       0.2022
     78 H23         9.8247   15.7203   43.2662 H           1 MOL       0.2022
     79 H24         5.0111   13.8188   40.5115 H           1 MOL       0.0938
     80 H25         6.5253   12.9118   38.8522 H           1 MOL       0.0671
     81 H26         5.5958   13.7558   36.6096 H           1 MOL       0.0648
     82 H27         3.6531   15.3820   36.7636 H           1 MOL       0.0651
     83 H28         3.6197   16.8835   38.7871 H           1 MOL       0.0647
     84 H29         2.8456   14.0978   39.7419 H           1 MOL       0.0584
     85 H30         1.9110   15.0294   38.5494 H           1 MOL       0.0584
     86 H31         7.8087   14.0980   37.5998 H           1 MOL       0.2101
     87 H32         4.6409   12.1203   37.6801 H           1 MOL       0.2100
     88 H33         2.6451   15.7765   41.1841 H           1 MOL       0.2095
     89 H34         5.4565   17.8885   38.2091 H           1 MOL       0.0938
     90 H35         5.2367   19.6341   36.6244 H           1 MOL       0.0671
     91 H36         5.6055   17.6566   34.3173 H           1 MOL       0.0648
     92 H37         7.6465   19.7051   35.3267 H           1 MOL       0.0647
     93 H38         7.7242   16.6421   35.5727 H           1 MOL       0.0647
     94 H39         9.7808   16.7361   36.5644 H           1 MOL       0.0584
     95 H40         9.5596   18.3945   37.1803 H           1 MOL       0.0584
     96 H41         3.3723   19.1147   35.5923 H           1 MOL       0.2101
     97 H42         5.6215   20.4861   34.4704 H           1 MOL       0.2100
     98 H43         8.9330   18.7616   33.7933 H           1 MOL       0.2100
     99 H44        11.0921   17.8801   35.3782 H           1 MOL       0.2095
    100 H45         8.5196   17.5964   45.0589 H           1 MOL       0.0877
    101 H46         6.3447   16.5762   44.6366 H           1 MOL       0.0677
    102 H47         7.7069   15.9188   46.3745 H           1 MOL       0.2102
    103 H48         7.8128   14.2495   43.2621 H           1 MOL       0.0647
    104 H49         6.0185   13.5546   44.2424 H           1 MOL       0.2100
    105 H50         5.8892   16.2605   42.0056 H           1 MOL       0.0627
    106 H51         8.9112   16.1016   41.5358 H           1 MOL       0.0351
    107 H52         9.0763   18.2870   42.6958 H           1 MOL       0.0325
    108 H53         7.3441   18.2912   43.0167 H           1 MOL       0.0325
    109 H54         6.7269   17.7695   40.2708 H           1 MOL       0.0561
    110 H55         8.0448   16.8481   39.5220 H           1 MOL       0.0561
    111 H56         8.2090   19.2971   40.8970 H           1 MOL       0.2094
@<TRIPOS>BOND
     1     2     1   1
     2     1     7   1
     3    11     1   1
     4     3     2   1
     5     2     8   1
     6     4     3   1
     7     3     9   1
     8     4     5   1
     9    10     4   1
    10     5     6   1
    11     5    11   1
    12     6    12   1
    13    13    10   1
    14    14    13   1
    15    22    13   1
    16    15    14   1
    17    14    19   1
    18    16    15   1
    19    15    20   1
    20    16    17   1
    21    21    16   1
    22    17    18   1
    23    17    22   1
    24    45    21   1
    25    23    24   1
    26    23    32   1
    27    51    23   1
    28    24    25   1
    29    24    29   1
    30    25    26   1
    31    25    30   1
    32    27    26   1
    33    26    31   1
    34    27    28   1
    35    32    27   1
    36    28    33   1
    37    31    34   1
    38    34    35   1
    39    34    43   1
    40    35    36   1
    41    35    40   1
    42    36    37   1
    43    36    41   1
    44    38    37   1
    45    37    42   1
    46    38    39   1
    47    43    38   1
    48    39    44   1
    49    46    45   1
    50    45    53   1
    51    46    47   1
    52    48    46   1
    53    48    49   1
    54    50    48   1
    55    50    51   1
    56    50    52   1
    57    52    53   1
    58    52    54   1
    59    54    55   1
    60     1    56   1
    61     2    57   1
    62     3    58   1
    63     4    59   1
    64     5    60   1
    65     6    61   1
    66     6    62   1
    67     7    63   1
    68     8    64   1
    69     9    65   1
    70    12    66   1
    71    13    67   1
    72    14    68   1
    73    15    69   1
    74    16    70   1
    75    17    71   1
    76    18    72   1
    77    18    73   1
    78    18    74   1
    79    19    75   1
    80    20    76   1
    81    21    77   1
    82    21    78   1
    83    23    79   1
    84    24    80   1
    85    25    81   1
    86    26    82   1
    87    27    83   1
    88    28    84   1
    89    28    85   1
    90    29    86   1
    91    30    87   1
    92    33    88   1
    93    34    89   1
    94    35    90   1
    95    36    91   1
    96    37    92   1
    97    38    93   1
    98    39    94   1
    99    39    95   1
   100    40    96   1
   101    41    97   1
   102    42    98   1
   103    44    99   1
   104    45   100   1
   105    46   101   1
   106    47   102   1
   107    48   103   1
   108    49   104   1
   109    50   105   1
   110    52   106   1
   111    53   107   1
   112    53   108   1
   113    54   109   1
   114    54   110   1
   115    55   111   1
@<TRIPOS>SUBSTRUCTURE
     1  MOL      1

