@<TRIPOS>MOLECULE
1xd0_ligand_070
   111   115
SMALL
GAST_HUCK
****
This file was generated by PARSER (from files_GN.cpp)

@<TRIPOS>ATOM
      1 CR1        14.6501    8.5205   32.3545 C.3         1 MOL       0.1854
      2 CR2        14.4990    9.8852   33.0679 C.3         1 MOL       0.1339
      3 CR3        14.7506    9.7413   34.5965 C.3         1 MOL       0.1144
      4 CR4        16.0519    8.9329   34.9098 C.3         1 MOL       0.1184
      5 CR5        16.2350    7.6597   34.0180 C.3         1 MOL       0.1134
      6 CR6        15.5344    6.3732   34.5345 C.3         1 MOL       0.0730
      7 OR1        14.5500    8.7001   30.9416 O.3         1 MOL      -0.3649
      8 OR2        15.4131   10.8259   32.4991 O.3         1 MOL      -0.3841
      9 OR3        13.6112    9.1723   35.2358 O.3         1 MOL      -0.3864
     10 OR4        17.1239    9.8714   34.6916 O.3         1 MOL      -0.3401
     11 OR5        15.9344    7.9322   32.6323 O.3         1 MOL      -0.3407
     12 OR6        14.8133    6.5879   35.7397 O.3         1 MOL      -0.3924
     13 CV1        18.4315    9.7876   35.3084 C.3         1 MOL       0.1886
     14 CV2        18.5323    9.5478   36.8341 C.3         1 MOL       0.1370
     15 CV3        17.5989   10.5461   37.5598 C.3         1 MOL       0.1304
     16 CV4        17.8484   12.0429   37.1656 C.3         1 MOL       0.0334
     17 CV5        18.3288   12.2132   35.6685 C.3         1 MOL       0.1038
     18 CV6        19.3308   13.3825   35.4500 C.3         1 MOL      -0.0332
     19 OV2        18.3192    8.1805   37.1788 O.3         1 MOL      -0.3840
     20 OV3        17.7181   10.3878   38.9762 O.3         1 MOL      -0.3834
     21 NV4        16.5727   12.7367   37.5308 N.4         1 MOL       0.2370
     22 OV5        19.0419   11.0744   35.1139 O.3         1 MOL      -0.3401
     23 CQ1        10.8068   15.0286   37.3476 C.3         1 MOL       0.1883
     24 CQ2        10.6029   16.5450   37.6153 C.3         1 MOL       0.1341
     25 CQ3        10.5328   16.8110   39.1394 C.3         1 MOL       0.1144
     26 CQ4         9.4309   15.9330   39.8120 C.3         1 MOL       0.1184
     27 CQ5         9.4541   14.4428   39.3140 C.3         1 MOL       0.1134
     28 CQ6         8.1221   13.6945   39.5954 C.3         1 MOL       0.0730
     29 OQ2        11.6100   17.3143   36.9759 O.3         1 MOL      -0.3841
     30 OQ3        10.2461   18.1926   39.3784 O.3         1 MOL      -0.3864
     31 OQ4         9.3746   16.0894   41.2535 O.3         1 MOL      -0.3401
     32 OQ5         9.6539   14.3464   37.8841 O.3         1 MOL      -0.3405
     33 OQ6         7.6615   13.8874   40.9295 O.3         1 MOL      -0.3924
     34 CW1        10.4548   15.6596   42.1205 C.3         1 MOL       0.1884
     35 CW2         9.9558   15.5572   43.5854 C.3         1 MOL       0.1341
     36 CW3         9.7164   16.9689   44.1839 C.3         1 MOL       0.1141
     37 CW4        10.9861   17.8474   44.0489 C.3         1 MOL       0.1119
     38 CW5        11.4697   17.8640   42.5680 C.3         1 MOL       0.1130
     39 CW6        12.8393   18.5584   42.3700 C.3         1 MOL       0.0730
     40 OW2         8.7631   14.7801   43.6528 O.3         1 MOL      -0.3841
     41 OW3         9.3394   16.8358   45.5521 O.3         1 MOL      -0.3864
     42 OW4        10.7079   19.1682   44.5210 O.3         1 MOL      -0.3865
     43 OW5        11.6158   16.5146   42.0601 O.3         1 MOL      -0.3405
     44 OW6        12.8345   19.9275   42.7625 O.3         1 MOL      -0.3924
     45 CY1        16.3505   14.1984   37.3090 C.3         1 MOL       0.0073
     46 CY2        15.7182   14.8909   38.5622 C.3         1 MOL       0.1257
     47 OY2        16.5006   14.5986   39.7269 O.3         1 MOL      -0.3835
     48 CY3        14.2415   14.4829   38.7943 C.3         1 MOL       0.1127
     49 OY3        13.7379   15.1905   39.9245 O.3         1 MOL      -0.3864
     50 CY4        13.3572   14.7638   37.5407 C.3         1 MOL       0.0953
     51 OY4        11.9977   14.3852   37.8890 O.3         1 MOL      -0.3424
     52 CY5        13.9429   14.0127   36.2900 C.3         1 MOL       0.0162
     53 CY6        15.4330   14.4501   36.0711 C.3         1 MOL       0.0002
     54 CY7        13.1358   14.1919   34.9727 C.3         1 MOL       0.0497
     55 OY7        12.7527   15.5409   34.7274 O.3         1 MOL      -0.3946
     56 H1         13.8418    7.8450   32.6557 H           1 MOL       0.0935
     57 H2         13.4883   10.2603   32.8974 H           1 MOL       0.0671
     58 H3         14.8464   10.7425   35.0291 H           1 MOL       0.0648
     59 H4         16.0154    8.6464   35.9625 H           1 MOL       0.0651
     60 H5         17.2949    7.4117   34.0245 H           1 MOL       0.0647
     61 H6         16.2804    5.5965   34.7300 H           1 MOL       0.0584
     62 H7         14.8427    5.9960   33.7764 H           1 MOL       0.0584
     63 H8         14.9639    7.8986   30.5552 H           1 MOL       0.2126
     64 H9         15.1468   11.6951   32.8662 H           1 MOL       0.2101
     65 H10        12.9488    9.8911   35.2823 H           1 MOL       0.2100
     66 H11        14.0352    5.9860   35.7359 H           1 MOL       0.2095
     67 H12        19.0341    9.0423   34.7821 H           1 MOL       0.0938
     68 H13        19.5618    9.7524   37.1382 H           1 MOL       0.0672
     69 H14        16.5673   10.2712   37.3094 H           1 MOL       0.0679
     70 H15        18.6281   12.4260   37.8230 H           1 MOL       0.0903
     71 H16        17.4623   12.3874   35.0280 H           1 MOL       0.0652
     72 H17        19.6330   13.4309   34.3953 H           1 MOL       0.0257
     73 H18        20.2250   13.2323   36.0578 H           1 MOL       0.0257
     74 H19        18.8998   14.3402   35.7200 H           1 MOL       0.0257
     75 H20        17.4067    8.1049   37.5310 H           1 MOL       0.2101
     76 H21        17.0619    9.6904   39.2135 H           1 MOL       0.2102
     77 H22        16.4396   12.5730   38.5368 H           1 MOL       0.2022
     78 H23        15.8093   12.2393   37.0565 H           1 MOL       0.2022
     79 H24        10.7716   14.8731   36.2708 H           1 MOL       0.0938
     80 H25         9.6522   16.8399   37.1688 H           1 MOL       0.0671
     81 H26        11.5064   16.5876   39.5714 H           1 MOL       0.0648
     82 H27         8.4810   16.3484   39.4608 H           1 MOL       0.0651
     83 H28        10.2578   13.8883   39.7981 H           1 MOL       0.0647
     84 H29         8.2626   12.6205   39.4371 H           1 MOL       0.0584
     85 H30         7.3457   14.0430   38.9071 H           1 MOL       0.0584
     86 H31        11.3862   18.2414   37.1681 H           1 MOL       0.2101
     87 H32        10.7837   18.7008   38.7315 H           1 MOL       0.2100
     88 H33         6.9097   13.2596   41.0324 H           1 MOL       0.2095
     89 H34        10.7821   14.6578   41.8400 H           1 MOL       0.0938
     90 H35        10.7226   15.0468   44.1768 H           1 MOL       0.0671
     91 H36         8.8856   17.4412   43.6505 H           1 MOL       0.0648
     92 H37        11.7737   17.4290   44.6828 H           1 MOL       0.0647
     93 H38        10.7310   18.3984   41.9633 H           1 MOL       0.0647
     94 H39        13.1203   18.5165   41.3158 H           1 MOL       0.0584
     95 H40        13.6081   18.0439   42.9485 H           1 MOL       0.0584
     96 H41         8.6903   14.5001   44.5904 H           1 MOL       0.2101
     97 H42         8.6510   17.5187   45.6932 H           1 MOL       0.2100
     98 H43        10.0911   19.5539   43.8639 H           1 MOL       0.2100
     99 H44        12.0219   20.3166   42.3689 H           1 MOL       0.2095
    100 H45        17.3053   14.6990   37.1452 H           1 MOL       0.0877
    101 H46        15.7649   15.9827   38.4138 H           1 MOL       0.0677
    102 H47        16.0844   15.1059   40.4495 H           1 MOL       0.2102
    103 H48        14.2052   13.4236   39.0318 H           1 MOL       0.0647
    104 H49        13.7867   16.1403   39.6849 H           1 MOL       0.2100
    105 H50        13.4124   15.8410   37.3530 H           1 MOL       0.0627
    106 H51        13.9311   12.9444   36.5164 H           1 MOL       0.0351
    107 H52        15.8450   13.9109   35.2185 H           1 MOL       0.0325
    108 H53        15.4668   15.5190   35.8364 H           1 MOL       0.0325
    109 H54        12.2416   13.5767   35.0208 H           1 MOL       0.0561
    110 H55        13.7216   13.8358   34.1277 H           1 MOL       0.0561
    111 H56        13.5834   16.0368   34.5641 H           1 MOL       0.2094
@<TRIPOS>BOND
     1     2     1   1
     2     1     7   1
     3    11     1   1
     4     3     2   1
     5     2     8   1
     6     4     3   1
     7     3     9   1
     8     4     5   1
     9    10     4   1
    10     5     6   1
    11     5    11   1
    12     6    12   1
    13    13    10   1
    14    14    13   1
    15    22    13   1
    16    15    14   1
    17    14    19   1
    18    16    15   1
    19    15    20   1
    20    16    17   1
    21    21    16   1
    22    17    18   1
    23    17    22   1
    24    45    21   1
    25    23    24   1
    26    23    32   1
    27    51    23   1
    28    24    25   1
    29    24    29   1
    30    25    26   1
    31    25    30   1
    32    27    26   1
    33    26    31   1
    34    27    28   1
    35    32    27   1
    36    28    33   1
    37    31    34   1
    38    34    35   1
    39    34    43   1
    40    35    36   1
    41    35    40   1
    42    36    37   1
    43    36    41   1
    44    38    37   1
    45    37    42   1
    46    38    39   1
    47    43    38   1
    48    39    44   1
    49    46    45   1
    50    45    53   1
    51    46    47   1
    52    48    46   1
    53    48    49   1
    54    50    48   1
    55    50    51   1
    56    50    52   1
    57    52    53   1
    58    52    54   1
    59    54    55   1
    60     1    56   1
    61     2    57   1
    62     3    58   1
    63     4    59   1
    64     5    60   1
    65     6    61   1
    66     6    62   1
    67     7    63   1
    68     8    64   1
    69     9    65   1
    70    12    66   1
    71    13    67   1
    72    14    68   1
    73    15    69   1
    74    16    70   1
    75    17    71   1
    76    18    72   1
    77    18    73   1
    78    18    74   1
    79    19    75   1
    80    20    76   1
    81    21    77   1
    82    21    78   1
    83    23    79   1
    84    24    80   1
    85    25    81   1
    86    26    82   1
    87    27    83   1
    88    28    84   1
    89    28    85   1
    90    29    86   1
    91    30    87   1
    92    33    88   1
    93    34    89   1
    94    35    90   1
    95    36    91   1
    96    37    92   1
    97    38    93   1
    98    39    94   1
    99    39    95   1
   100    40    96   1
   101    41    97   1
   102    42    98   1
   103    44    99   1
   104    45   100   1
   105    46   101   1
   106    47   102   1
   107    48   103   1
   108    49   104   1
   109    50   105   1
   110    52   106   1
   111    53   107   1
   112    53   108   1
   113    54   109   1
   114    54   110   1
   115    55   111   1
@<TRIPOS>SUBSTRUCTURE
     1  MOL      1

