@<TRIPOS>MOLECULE
1xd0_ligand_019
   111   115
SMALL
GAST_HUCK
****
This file was generated by PARSER (from files_GN.cpp)

@<TRIPOS>ATOM
      1 CR1        15.3354   15.0313   40.1883 C.3         1 MOL       0.1854
      2 CR2        15.7704   16.4890   40.4823 C.3         1 MOL       0.1339
      3 CR3        14.8344   17.1460   41.5278 C.3         1 MOL       0.1144
      4 CR4        13.3333   17.0280   41.1047 C.3         1 MOL       0.1184
      5 CR5        12.9891   15.5560   40.6940 C.3         1 MOL       0.1134
      6 CR6        11.6197   15.4319   39.9771 C.3         1 MOL       0.0730
      7 OR1        15.5391   14.1731   41.3126 O.3         1 MOL      -0.3649
      8 OR2        17.1311   16.4862   40.9215 O.3         1 MOL      -0.3841
      9 OR3        15.1969   18.5158   41.6760 O.3         1 MOL      -0.3864
     10 OR4        12.4983   17.4140   42.2212 O.3         1 MOL      -0.3401
     11 OR5        13.9569   14.9993   39.7703 O.3         1 MOL      -0.3407
     12 OR6        10.9727   14.1939   40.2588 O.3         1 MOL      -0.3924
     13 CV1        11.8645   18.7170   42.2069 C.3         1 MOL       0.1886
     14 CV2        11.5882   19.1975   43.6551 C.3         1 MOL       0.1370
     15 CV3        10.5861   18.2439   44.3514 C.3         1 MOL       0.1304
     16 CV4         9.2713   18.0863   43.5249 C.3         1 MOL       0.0334
     17 CV5         9.5617   17.8816   42.0066 C.3         1 MOL       0.1038
     18 CV6         8.3509   18.1342   41.0734 C.3         1 MOL      -0.0332
     19 OV2        12.8155   19.2642   44.4058 O.3         1 MOL      -0.3840
     20 OV3        10.3031   18.7978   45.6384 O.3         1 MOL      -0.3834
     21 NV4         8.2905   17.1284   44.1376 N.4         1 MOL       0.2370
     22 OV5        10.6220   18.7109   41.4758 O.3         1 MOL      -0.3401
     23 CQ1         3.9228   15.4851   41.8530 C.3         1 MOL       0.1883
     24 CQ2         2.4482   15.9279   41.9961 C.3         1 MOL       0.1341
     25 CQ3         1.8460   16.3454   40.6248 C.3         1 MOL       0.1144
     26 CQ4         2.1014   15.2782   39.5170 C.3         1 MOL       0.1184
     27 CQ5         3.5848   14.7911   39.5109 C.3         1 MOL       0.1134
     28 CQ6         4.5743   15.7206   38.7458 C.3         1 MOL       0.0730
     29 OQ2         1.6764   14.8763   42.5811 O.3         1 MOL      -0.3841
     30 OQ3         2.3962   17.6078   40.2400 O.3         1 MOL      -0.3864
     31 OQ4         1.2742   14.0981   39.6943 O.3         1 MOL      -0.3401
     32 OQ5         4.0439   14.4639   40.8433 O.3         1 MOL      -0.3405
     33 OQ6         5.8940   15.1889   38.7612 O.3         1 MOL      -0.3924
     34 CW1        -0.0885   14.0721   39.2185 C.3         1 MOL       0.1884
     35 CW2        -0.4780   12.5816   39.0109 C.3         1 MOL       0.1341
     36 CW3        -1.8899   12.4480   38.3776 C.3         1 MOL       0.1141
     37 CW4        -2.0358   13.3277   37.1007 C.3         1 MOL       0.1119
     38 CW5        -1.5547   14.7927   37.3481 C.3         1 MOL       0.1130
     39 CW6        -2.5551   15.7186   38.0923 C.3         1 MOL       0.0730
     40 OW2         0.4961   11.9492   38.1770 O.3         1 MOL      -0.3841
     41 OW3        -2.9129   12.8027   39.3123 O.3         1 MOL      -0.3864
     42 OW4        -1.2658   12.7625   36.0398 O.3         1 MOL      -0.3865
     43 OW5        -0.2445   14.7936   37.9722 O.3         1 MOL      -0.3405
     44 OW6        -3.6388   16.1140   37.2540 O.3         1 MOL      -0.3924
     45 CY1         8.4799   15.6433   44.3029 C.3         1 MOL       0.0073
     46 CY2         8.2584   14.7448   43.0441 C.3         1 MOL       0.1257
     47 OY2         9.2801   14.9455   42.0629 O.3         1 MOL      -0.3835
     48 CY3         6.8384   14.9212   42.4507 C.3         1 MOL       0.1127
     49 OY3         6.7164   14.0558   41.3214 O.3         1 MOL      -0.3864
     50 CY4         5.7114   14.6318   43.5018 C.3         1 MOL       0.0953
     51 OY4         4.3461   14.9533   43.1205 O.3         1 MOL      -0.3424
     52 CY5         5.9749   15.2819   44.9141 C.3         1 MOL       0.0162
     53 CY6         7.4604   15.1477   45.3739 C.3         1 MOL       0.0002
     54 CY7         5.0481   14.6961   46.0246 C.3         1 MOL       0.0497
     55 OY7         3.7151   15.1973   45.9655 O.3         1 MOL      -0.3946
     56 H1         15.9341   14.6428   39.3597 H           1 MOL       0.0935
     57 H2         15.7175   17.0690   39.5554 H           1 MOL       0.0671
     58 H3         14.9660   16.6517   42.4887 H           1 MOL       0.0648
     59 H4         13.1592   17.6726   40.2306 H           1 MOL       0.0651
     60 H5         12.9633   14.9403   41.5964 H           1 MOL       0.0647
     61 H6         11.7277   15.5567   38.8996 H           1 MOL       0.0584
     62 H7         10.9355   16.2277   40.3166 H           1 MOL       0.0584
     63 H8         16.5130   14.0715   41.3858 H           1 MOL       0.2126
     64 H9         17.6079   17.0433   40.2624 H           1 MOL       0.2101
     65 H10        16.1760   18.5267   41.6886 H           1 MOL       0.2100
     66 H11        11.6000   13.5145   39.9189 H           1 MOL       0.2095
     67 H12        12.5012   19.4658   41.7339 H           1 MOL       0.0938
     68 H13        11.1506   20.2109   43.6163 H           1 MOL       0.0672
     69 H14        11.0779   17.2749   44.4773 H           1 MOL       0.0679
     70 H15         8.7620   19.0488   43.5942 H           1 MOL       0.0903
     71 H16         9.8762   16.8429   41.8651 H           1 MOL       0.0652
     72 H17         8.5813   17.7971   40.0557 H           1 MOL       0.0257
     73 H18         8.1158   19.2006   41.0416 H           1 MOL       0.0257
     74 H19         7.4581   17.5953   41.4089 H           1 MOL       0.0257
     75 H20        12.9311   20.2171   44.6449 H           1 MOL       0.2101
     76 H21        10.8360   18.2585   46.2610 H           1 MOL       0.2102
     77 H22         7.3942   17.2690   43.6699 H           1 MOL       0.2022
     78 H23         8.1716   17.4765   45.0996 H           1 MOL       0.2022
     79 H24         4.5258   16.3623   41.6103 H           1 MOL       0.0938
     80 H25         2.3923   16.7768   42.6804 H           1 MOL       0.0671
     81 H26         0.7747   16.5057   40.7439 H           1 MOL       0.0648
     82 H27         1.8836   15.7234   38.5398 H           1 MOL       0.0651
     83 H28         3.6115   13.8424   38.9619 H           1 MOL       0.0647
     84 H29         4.5955   16.7193   39.1807 H           1 MOL       0.0584
     85 H30         4.2670   15.8076   37.7049 H           1 MOL       0.0584
     86 H31         0.7653   14.9999   42.2349 H           1 MOL       0.2101
     87 H32         1.7803   17.9613   39.5618 H           1 MOL       0.2100
     88 H33         6.1864   15.2451   39.6958 H           1 MOL       0.2095
     89 H34        -0.7299   14.5082   39.9916 H           1 MOL       0.0938
     90 H35        -0.4571   12.0663   39.9750 H           1 MOL       0.0671
     91 H36        -2.0638   11.3980   38.1147 H           1 MOL       0.0648
     92 H37        -3.0760   13.3275   36.7744 H           1 MOL       0.0647
     93 H38        -1.4013   15.2536   36.3667 H           1 MOL       0.0647
     94 H39        -2.0366   16.6289   38.4068 H           1 MOL       0.0584
     95 H40        -2.9641   15.2457   38.9850 H           1 MOL       0.0584
     96 H41         0.3029   10.9904   38.2360 H           1 MOL       0.2101
     97 H42        -2.4801   12.8244   40.1907 H           1 MOL       0.2100
     98 H43        -1.7035   11.9140   35.8187 H           1 MOL       0.2100
     99 H44        -4.2165   15.3265   37.1746 H           1 MOL       0.2095
    100 H45         9.4752   15.4446   44.7030 H           1 MOL       0.0877
    101 H46         8.3677   13.7012   43.3497 H           1 MOL       0.0677
    102 H47         9.1712   14.2049   41.4212 H           1 MOL       0.2102
    103 H48         6.7410   15.9449   42.0859 H           1 MOL       0.0647
    104 H49         6.2165   13.2680   41.6315 H           1 MOL       0.2100
    105 H50         5.7164   13.5471   43.6483 H           1 MOL       0.0627
    106 H51         5.7468   16.3505   44.8325 H           1 MOL       0.0351
    107 H52         7.6100   15.7169   46.2900 H           1 MOL       0.0325
    108 H53         7.6734   14.1024   45.6127 H           1 MOL       0.0325
    109 H54         5.4260   14.9579   47.0170 H           1 MOL       0.0561
    110 H55         5.0099   13.6036   45.9619 H           1 MOL       0.0561
    111 H56         3.5110   15.2838   45.0091 H           1 MOL       0.2094
@<TRIPOS>BOND
     1     2     1   1
     2     1     7   1
     3    11     1   1
     4     3     2   1
     5     2     8   1
     6     4     3   1
     7     3     9   1
     8     4     5   1
     9    10     4   1
    10     5     6   1
    11     5    11   1
    12     6    12   1
    13    13    10   1
    14    14    13   1
    15    22    13   1
    16    15    14   1
    17    14    19   1
    18    16    15   1
    19    15    20   1
    20    16    17   1
    21    21    16   1
    22    17    18   1
    23    17    22   1
    24    45    21   1
    25    23    24   1
    26    23    32   1
    27    51    23   1
    28    24    25   1
    29    24    29   1
    30    25    26   1
    31    25    30   1
    32    27    26   1
    33    26    31   1
    34    27    28   1
    35    32    27   1
    36    28    33   1
    37    31    34   1
    38    34    35   1
    39    34    43   1
    40    35    36   1
    41    35    40   1
    42    36    37   1
    43    36    41   1
    44    38    37   1
    45    37    42   1
    46    38    39   1
    47    43    38   1
    48    39    44   1
    49    46    45   1
    50    45    53   1
    51    46    47   1
    52    48    46   1
    53    48    49   1
    54    50    48   1
    55    50    51   1
    56    50    52   1
    57    52    53   1
    58    52    54   1
    59    54    55   1
    60     1    56   1
    61     2    57   1
    62     3    58   1
    63     4    59   1
    64     5    60   1
    65     6    61   1
    66     6    62   1
    67     7    63   1
    68     8    64   1
    69     9    65   1
    70    12    66   1
    71    13    67   1
    72    14    68   1
    73    15    69   1
    74    16    70   1
    75    17    71   1
    76    18    72   1
    77    18    73   1
    78    18    74   1
    79    19    75   1
    80    20    76   1
    81    21    77   1
    82    21    78   1
    83    23    79   1
    84    24    80   1
    85    25    81   1
    86    26    82   1
    87    27    83   1
    88    28    84   1
    89    28    85   1
    90    29    86   1
    91    30    87   1
    92    33    88   1
    93    34    89   1
    94    35    90   1
    95    36    91   1
    96    37    92   1
    97    38    93   1
    98    39    94   1
    99    39    95   1
   100    40    96   1
   101    41    97   1
   102    42    98   1
   103    44    99   1
   104    45   100   1
   105    46   101   1
   106    47   102   1
   107    48   103   1
   108    49   104   1
   109    50   105   1
   110    52   106   1
   111    53   107   1
   112    53   108   1
   113    54   109   1
   114    54   110   1
   115    55   111   1
@<TRIPOS>SUBSTRUCTURE
     1  MOL      1

