@<TRIPOS>MOLECULE
1xd0_ligand_015
   111   115
SMALL
GAST_HUCK
****
This file was generated by PARSER (from files_GN.cpp)

@<TRIPOS>ATOM
      1 CR1         1.9197   16.5315   39.3386 C.3         1 MOL       0.1854
      2 CR2         1.4904   15.3733   40.2703 C.3         1 MOL       0.1339
      3 CR3         2.2262   15.4554   41.6339 C.3         1 MOL       0.1144
      4 CR4         3.7711   15.6047   41.4772 C.3         1 MOL       0.1184
      5 CR5         4.0561   16.7938   40.4986 C.3         1 MOL       0.1134
      6 CR6         5.5423   17.0046   40.1129 C.3         1 MOL       0.0730
      7 OR1         1.3805   17.7868   39.7559 O.3         1 MOL      -0.3649
      8 OR2         0.0765   15.3929   40.4489 O.3         1 MOL      -0.3841
      9 OR3         1.9077   14.2955   42.3960 O.3         1 MOL      -0.3864
     10 OR4         4.3785   15.8338   42.7792 O.3         1 MOL      -0.3401
     11 OR5         3.3521   16.6061   39.2477 O.3         1 MOL      -0.3407
     12 OR6         6.2340   15.7794   39.8899 O.3         1 MOL      -0.3924
     13 CV1         4.9428   14.6771   43.4567 C.3         1 MOL       0.1886
     14 CV2         5.1565   14.8869   44.9769 C.3         1 MOL       0.1370
     15 CV3         6.3017   15.9024   45.2605 C.3         1 MOL       0.1304
     16 CV4         7.6134   15.5956   44.4569 C.3         1 MOL       0.0334
     17 CV5         7.2465   15.2608   42.9673 C.3         1 MOL       0.1038
     18 CV6         8.4214   14.7034   42.1278 C.3         1 MOL      -0.0332
     19 OV2         3.9535   15.3131   45.6155 O.3         1 MOL      -0.3840
     20 OV3         6.5822   15.9156   46.6609 O.3         1 MOL      -0.3834
     21 NV4         8.5308   16.7814   44.4684 N.4         1 MOL       0.2370
     22 OV5         6.1895   14.2842   42.8531 O.3         1 MOL      -0.3401
     23 CQ1        11.8833   16.5971   40.9089 C.3         1 MOL       0.1883
     24 CQ2        12.8112   15.5766   40.1875 C.3         1 MOL       0.1341
     25 CQ3        12.0880   15.0014   38.9295 C.3         1 MOL       0.1144
     26 CQ4        11.6304   16.1548   37.9749 C.3         1 MOL       0.1184
     27 CQ5        10.8434   17.2554   38.7685 C.3         1 MOL       0.1134
     28 CQ6         9.3345   16.9185   38.9960 C.3         1 MOL       0.0730
     29 OQ2        14.0478   16.2269   39.8415 O.3         1 MOL      -0.3841
     30 OQ3        10.9722   14.1937   39.3323 O.3         1 MOL      -0.3864
     31 OQ4        12.7099   16.8317   37.2959 O.3         1 MOL      -0.3401
     32 OQ5        11.5144   17.6720   39.9927 O.3         1 MOL      -0.3405
     33 OQ6         8.5552   18.0974   39.2021 O.3         1 MOL      -0.3924
     34 CW1        13.7396   16.0687   36.6310 C.3         1 MOL       0.1884
     35 CW2        14.6639   17.0556   35.8730 C.3         1 MOL       0.1341
     36 CW3        15.8028   16.2883   35.1410 C.3         1 MOL       0.1141
     37 CW4        15.2472   15.1224   34.2727 C.3         1 MOL       0.1119
     38 CW5        14.1886   14.2488   35.0215 C.3         1 MOL       0.1130
     39 CW6        14.7771   13.1278   35.9225 C.3         1 MOL       0.0730
     40 OW2        13.8917   17.8170   34.9397 O.3         1 MOL      -0.3841
     41 OW3        16.7873   15.8248   36.0682 O.3         1 MOL      -0.3864
     42 OW4        14.6485   15.6755   33.0985 O.3         1 MOL      -0.3865
     43 OW5        13.2184   15.0746   35.7160 O.3         1 MOL      -0.3405
     44 OW6        14.0381   11.9179   35.7390 O.3         1 MOL      -0.3924
     45 CY1         9.7406   16.8715   45.3439 C.3         1 MOL       0.0073
     46 CY2        10.4597   18.2256   45.0500 C.3         1 MOL       0.1257
     47 OY2         9.6149   19.3413   45.3116 O.3         1 MOL      -0.3835
     48 CY3        11.0403   18.2536   43.6001 C.3         1 MOL       0.1127
     49 OY3        11.7095   19.4967   43.3599 O.3         1 MOL      -0.3864
     50 CY4        12.0610   17.0909   43.3900 C.3         1 MOL       0.0953
     51 OY4        12.6224   17.1178   42.0472 O.3         1 MOL      -0.3424
     52 CY5        11.5457   15.6692   43.8622 C.3         1 MOL       0.0162
     53 CY6        10.7918   15.7246   45.2298 C.3         1 MOL       0.0002
     54 CY7        12.6882   14.6024   43.9078 C.3         1 MOL       0.0497
     55 OY7        13.9926   15.1925   44.0507 O.3         1 MOL      -0.3946
     56 H1          1.5422   16.3385   38.3340 H           1 MOL       0.0935
     57 H2          1.7547   14.4363   39.7853 H           1 MOL       0.0671
     58 H3          1.8491   16.3204   42.1919 H           1 MOL       0.0648
     59 H4          4.1649   14.6934   41.0084 H           1 MOL       0.0651
     60 H5          3.7156   17.7279   40.9637 H           1 MOL       0.0647
     61 H6          6.0466   17.5683   40.8928 H           1 MOL       0.0584
     62 H7          5.6041   17.5973   39.1981 H           1 MOL       0.0584
     63 H8          1.9480   18.4665   39.3258 H           1 MOL       0.2126
     64 H9         -0.1736   14.5343   40.8497 H           1 MOL       0.2101
     65 H10         2.0971   13.5328   41.8108 H           1 MOL       0.2100
     66 H11         5.8144   15.3827   39.0971 H           1 MOL       0.2095
     67 H12         4.2805   13.8162   43.3637 H           1 MOL       0.0938
     68 H13         5.4441   13.9291   45.4212 H           1 MOL       0.0672
     69 H14         5.9503   16.9021   44.9888 H           1 MOL       0.0679
     70 H15         8.0956   14.7115   44.8910 H           1 MOL       0.0903
     71 H16         6.9370   16.1914   42.4881 H           1 MOL       0.0652
     72 H17         8.0646   14.3681   41.1405 H           1 MOL       0.0257
     73 H18         8.8819   13.8546   42.6445 H           1 MOL       0.0257
     74 H19         9.1779   15.4873   41.9760 H           1 MOL       0.0257
     75 H20         3.3516   14.5451   45.5759 H           1 MOL       0.2101
     76 H21         6.9491   15.0285   46.8620 H           1 MOL       0.2102
     77 H22         7.9468   17.5914   44.7245 H           1 MOL       0.2022
     78 H23         8.8457   16.9225   43.5055 H           1 MOL       0.2022
     79 H24        10.9784   16.0663   41.2517 H           1 MOL       0.0938
     80 H25        13.0468   14.7381   40.8674 H           1 MOL       0.0671
     81 H26        12.7765   14.3299   38.4059 H           1 MOL       0.0648
     82 H27        10.9781   15.7242   37.2127 H           1 MOL       0.0651
     83 H28        10.8357   18.1521   38.1469 H           1 MOL       0.0647
     84 H29         9.2017   16.2640   39.8653 H           1 MOL       0.0584
     85 H30         8.9299   16.4013   38.1164 H           1 MOL       0.0584
     86 H31        14.6495   15.4888   39.6171 H           1 MOL       0.2101
     87 H32        11.3974   13.3676   39.6534 H           1 MOL       0.2100
     88 H33         8.8525   18.4453   40.0729 H           1 MOL       0.2095
     89 H34        14.3349   15.5940   37.4077 H           1 MOL       0.0938
     90 H35        15.1079   17.7571   36.5891 H           1 MOL       0.0671
     91 H36        16.3244   16.9863   34.4834 H           1 MOL       0.0648
     92 H37        16.0753   14.4967   33.9423 H           1 MOL       0.0647
     93 H38        13.6193   13.7198   34.2495 H           1 MOL       0.0647
     94 H39        14.7385   13.3946   36.9820 H           1 MOL       0.0584
     95 H40        15.8228   12.9304   35.6560 H           1 MOL       0.0584
     96 H41        14.4453   18.6009   34.7283 H           1 MOL       0.2101
     97 H42        16.3552   15.1432   36.6187 H           1 MOL       0.2100
     98 H43        14.5280   14.9177   32.4849 H           1 MOL       0.2100
     99 H44        14.2643   11.3566   36.5127 H           1 MOL       0.2095
    100 H45         9.3851   16.8962   46.3779 H           1 MOL       0.0877
    101 H46        11.2888   18.3323   45.7512 H           1 MOL       0.0677
    102 H47         9.2144   19.5983   44.4522 H           1 MOL       0.2102
    103 H48        10.2329   18.1675   42.8679 H           1 MOL       0.0647
    104 H49        11.0181   20.1040   43.0287 H           1 MOL       0.2100
    105 H50        12.9075   17.3560   44.0315 H           1 MOL       0.0627
    106 H51        10.7996   15.3251   43.1324 H           1 MOL       0.0351
    107 H52        10.2970   14.7703   45.4042 H           1 MOL       0.0325
    108 H53        11.5214   15.8651   46.0331 H           1 MOL       0.0325
    109 H54        12.6707   14.0144   42.9834 H           1 MOL       0.0561
    110 H55        12.5124   13.8985   44.7408 H           1 MOL       0.0561
    111 H56        14.4885   14.5563   44.6078 H           1 MOL       0.2094
@<TRIPOS>BOND
     1     2     1   1
     2     1     7   1
     3    11     1   1
     4     3     2   1
     5     2     8   1
     6     4     3   1
     7     3     9   1
     8     4     5   1
     9    10     4   1
    10     5     6   1
    11     5    11   1
    12     6    12   1
    13    13    10   1
    14    14    13   1
    15    22    13   1
    16    15    14   1
    17    14    19   1
    18    16    15   1
    19    15    20   1
    20    16    17   1
    21    21    16   1
    22    17    18   1
    23    17    22   1
    24    45    21   1
    25    23    24   1
    26    23    32   1
    27    51    23   1
    28    24    25   1
    29    24    29   1
    30    25    26   1
    31    25    30   1
    32    27    26   1
    33    26    31   1
    34    27    28   1
    35    32    27   1
    36    28    33   1
    37    31    34   1
    38    34    35   1
    39    34    43   1
    40    35    36   1
    41    35    40   1
    42    36    37   1
    43    36    41   1
    44    38    37   1
    45    37    42   1
    46    38    39   1
    47    43    38   1
    48    39    44   1
    49    46    45   1
    50    45    53   1
    51    46    47   1
    52    48    46   1
    53    48    49   1
    54    50    48   1
    55    50    51   1
    56    50    52   1
    57    52    53   1
    58    52    54   1
    59    54    55   1
    60     1    56   1
    61     2    57   1
    62     3    58   1
    63     4    59   1
    64     5    60   1
    65     6    61   1
    66     6    62   1
    67     7    63   1
    68     8    64   1
    69     9    65   1
    70    12    66   1
    71    13    67   1
    72    14    68   1
    73    15    69   1
    74    16    70   1
    75    17    71   1
    76    18    72   1
    77    18    73   1
    78    18    74   1
    79    19    75   1
    80    20    76   1
    81    21    77   1
    82    21    78   1
    83    23    79   1
    84    24    80   1
    85    25    81   1
    86    26    82   1
    87    27    83   1
    88    28    84   1
    89    28    85   1
    90    29    86   1
    91    30    87   1
    92    33    88   1
    93    34    89   1
    94    35    90   1
    95    36    91   1
    96    37    92   1
    97    38    93   1
    98    39    94   1
    99    39    95   1
   100    40    96   1
   101    41    97   1
   102    42    98   1
   103    44    99   1
   104    45   100   1
   105    46   101   1
   106    47   102   1
   107    48   103   1
   108    49   104   1
   109    50   105   1
   110    52   106   1
   111    53   107   1
   112    53   108   1
   113    54   109   1
   114    54   110   1
   115    55   111   1
@<TRIPOS>SUBSTRUCTURE
     1  MOL      1

