@<TRIPOS>MOLECULE
1xd0_ligand_040
   111   115
SMALL
GAST_HUCK
****
This file was generated by PARSER (from files_GN.cpp)

@<TRIPOS>ATOM
      1 CR1         2.8980   14.7055   38.2383 C.3         1 MOL       0.1854
      2 CR2         3.7945   15.9080   37.8537 C.3         1 MOL       0.1339
      3 CR3         4.9290   16.0986   38.8981 C.3         1 MOL       0.1144
      4 CR4         4.3584   16.1675   40.3488 C.3         1 MOL       0.1184
      5 CR5         3.3973   14.9602   40.6196 C.3         1 MOL       0.1134
      6 CR6         2.6486   15.0439   41.9758 C.3         1 MOL       0.0730
      7 OR1         3.5922   13.4660   38.0779 O.3         1 MOL      -0.3649
      8 OR2         4.3334   15.7185   36.5462 O.3         1 MOL      -0.3841
      9 OR3         5.6711   17.2775   38.5925 O.3         1 MOL      -0.3864
     10 OR4         5.3460   16.3233   41.3994 O.3         1 MOL      -0.3401
     11 OR5         2.3963   14.8481   39.5839 O.3         1 MOL      -0.3407
     12 OR6         1.7243   16.1295   42.0257 O.3         1 MOL      -0.3924
     13 CV1         6.5485   15.5183   41.4102 C.3         1 MOL       0.1886
     14 CV2         6.8449   14.9485   42.8218 C.3         1 MOL       0.1370
     15 CV3         7.3253   16.0645   43.7897 C.3         1 MOL       0.1304
     16 CV4         8.5358   16.8342   43.1722 C.3         1 MOL       0.0334
     17 CV5         8.1165   17.3780   41.7669 C.3         1 MOL       0.1038
     18 CV6         9.2755   18.0640   40.9978 C.3         1 MOL      -0.0332
     19 OV2         5.6928   14.2725   43.3280 O.3         1 MOL      -0.3840
     20 OV3         7.6719   15.4752   45.0429 O.3         1 MOL      -0.3834
     21 NV4         9.0234   17.9204   44.0812 N.4         1 MOL       0.2370
     22 OV5         7.6700   16.2873   40.9246 O.3         1 MOL      -0.3401
     23 CQ1        13.5651   16.6610   41.6526 C.3         1 MOL       0.1883
     24 CQ2        13.8666   15.1349   41.5467 C.3         1 MOL       0.1341
     25 CQ3        13.4996   14.6195   40.1291 C.3         1 MOL       0.1144
     26 CQ4        14.1989   15.4397   39.0126 C.3         1 MOL       0.1184
     27 CQ5        14.1469   16.9847   39.2822 C.3         1 MOL       0.1134
     28 CQ6        12.8567   17.6388   38.7287 C.3         1 MOL       0.0730
     29 OQ2        15.2290   14.8631   41.8624 O.3         1 MOL      -0.3841
     30 OQ3        12.0771   14.6386   39.9635 O.3         1 MOL      -0.3864
     31 OQ4        15.5299   14.8952   38.9330 O.3         1 MOL      -0.3401
     32 OQ5        14.3713   17.3354   40.6732 O.3         1 MOL      -0.3405
     33 OQ6        12.7455   18.9869   39.1613 O.3         1 MOL      -0.3924
     34 CW1        16.4446   15.1255   37.8424 C.3         1 MOL       0.1884
     35 CW2        15.9255   15.1537   36.3681 C.3         1 MOL       0.1341
     36 CW3        15.3771   13.7666   35.9436 C.3         1 MOL       0.1141
     37 CW4        16.4451   12.6666   36.1919 C.3         1 MOL       0.1119
     38 CW5        16.9595   12.7387   37.6609 C.3         1 MOL       0.1130
     39 CW6        18.1055   11.7380   37.9638 C.3         1 MOL       0.0730
     40 OW2        14.9605   16.1777   36.1493 O.3         1 MOL      -0.3841
     41 OW3        15.0313   13.7652   34.5589 O.3         1 MOL      -0.3864
     42 OW4        15.9136   11.3799   35.8819 O.3         1 MOL      -0.3865
     43 OW5        17.4347   14.0794   37.9549 O.3         1 MOL      -0.3405
     44 OW6        19.3089   12.0980   37.2931 O.3         1 MOL      -0.3924
     45 CY1        10.0716   17.7057   45.1339 C.3         1 MOL       0.0073
     46 CY2        11.1418   18.8414   45.1244 C.3         1 MOL       0.1257
     47 OY2        10.5197   20.1221   45.1302 O.3         1 MOL      -0.3835
     48 CY3        12.1634   18.6852   43.9623 C.3         1 MOL       0.1127
     49 OY3        13.1366   19.7330   44.0295 O.3         1 MOL      -0.3864
     50 CY4        12.9006   17.3063   44.0239 C.3         1 MOL       0.0953
     51 OY4        13.8924   17.1798   42.9643 O.3         1 MOL      -0.3424
     52 CY5        11.9124   16.0927   44.1541 C.3         1 MOL       0.0162
     53 CY6        10.8169   16.3381   45.2315 C.3         1 MOL       0.0002
     54 CY7        12.5964   14.7006   44.4077 C.3         1 MOL       0.0497
     55 OY7        14.0185   14.7423   44.2579 O.3         1 MOL      -0.3946
     56 H1          2.0340   14.6833   37.5671 H           1 MOL       0.0935
     57 H2          3.1735   16.8090   37.8301 H           1 MOL       0.0671
     58 H3          5.6157   15.2547   38.8141 H           1 MOL       0.0648
     59 H4          3.7511   17.0757   40.3980 H           1 MOL       0.0651
     60 H5          3.9776   14.0335   40.6394 H           1 MOL       0.0647
     61 H6          3.3528   15.1501   42.8018 H           1 MOL       0.0584
     62 H7          2.0849   14.1208   42.1346 H           1 MOL       0.0584
     63 H8          2.9427   12.7760   38.3314 H           1 MOL       0.2126
     64 H9          4.8288   16.5404   36.3457 H           1 MOL       0.2101
     65 H10         5.0043   17.9886   38.4874 H           1 MOL       0.2100
     66 H11         2.2703   16.9429   42.0264 H           1 MOL       0.2095
     67 H12         6.4378   14.6603   40.7442 H           1 MOL       0.0938
     68 H13         7.6454   14.2053   42.7242 H           1 MOL       0.0672
     69 H14         6.5037   16.7660   43.9730 H           1 MOL       0.0679
     70 H15         9.3245   16.1106   42.9896 H           1 MOL       0.0903
     71 H16         7.3117   18.1137   41.8781 H           1 MOL       0.0652
     72 H17         8.9476   18.3404   39.9905 H           1 MOL       0.0257
     73 H18        10.1262   17.3842   40.9102 H           1 MOL       0.0257
     74 H19         9.5990   18.9767   41.5037 H           1 MOL       0.0257
     75 H20         6.0354   13.6319   43.9850 H           1 MOL       0.2101
     76 H21         6.8245   15.1568   45.4265 H           1 MOL       0.2102
     77 H22         8.1944   18.2595   44.5833 H           1 MOL       0.2022
     78 H23         9.3256   18.7062   43.5074 H           1 MOL       0.2022
     79 H24        12.5081   16.8492   41.4359 H           1 MOL       0.0938
     80 H25        13.2730   14.5848   42.2729 H           1 MOL       0.0671
     81 H26        13.7941   13.5686   40.0692 H           1 MOL       0.0648
     82 H27        13.6853   15.2042   38.0813 H           1 MOL       0.0651
     83 H28        14.9704   17.4417   38.7348 H           1 MOL       0.0647
     84 H29        11.9668   17.1025   39.0603 H           1 MOL       0.0584
     85 H30        12.8702   17.6208   37.6391 H           1 MOL       0.0584
     86 H31        15.7527   15.4160   41.2534 H           1 MOL       0.2101
     87 H32        11.9165   14.1739   39.1113 H           1 MOL       0.2100
     88 H33        11.9911   19.3385   38.6461 H           1 MOL       0.2095
     89 H34        16.9454   16.0711   38.0389 H           1 MOL       0.0938
     90 H35        16.7749   15.3937   35.7210 H           1 MOL       0.0671
     91 H36        14.4739   13.5355   36.5149 H           1 MOL       0.0648
     92 H37        17.2835   12.8451   35.5173 H           1 MOL       0.0647
     93 H38        16.1351   12.4815   38.3357 H           1 MOL       0.0647
     94 H39        17.8204   10.7230   37.6808 H           1 MOL       0.0584
     95 H40        18.3112   11.7373   39.0390 H           1 MOL       0.0584
     96 H41        15.4282   17.0205   36.3489 H           1 MOL       0.2101
     97 H42        14.2748   14.3877   34.4718 H           1 MOL       0.2100
     98 H43        15.1758   11.2346   36.5129 H           1 MOL       0.2100
     99 H44        19.1536   11.9009   36.3438 H           1 MOL       0.2095
    100 H45         9.5250   17.8040   46.0767 H           1 MOL       0.0877
    101 H46        11.6990   18.8001   46.0639 H           1 MOL       0.0677
    102 H47        10.2058   20.2726   44.2200 H           1 MOL       0.2102
    103 H48        11.6395   18.7819   43.0101 H           1 MOL       0.0647
    104 H49        12.6301   20.5740   44.0656 H           1 MOL       0.2100
    105 H50        13.4939   17.3230   44.9460 H           1 MOL       0.0627
    106 H51        11.3951   16.0192   43.1879 H           1 MOL       0.0351
    107 H52        10.0952   15.5172   45.2163 H           1 MOL       0.0325
    108 H53        11.2967   16.2947   46.2122 H           1 MOL       0.0325
    109 H54        12.1959   13.9753   43.6774 H           1 MOL       0.0561
    110 H55        12.3876   14.3121   45.4025 H           1 MOL       0.0561
    111 H56        14.2931   13.7995   44.2160 H           1 MOL       0.2094
@<TRIPOS>BOND
     1     2     1   1
     2     1     7   1
     3    11     1   1
     4     3     2   1
     5     2     8   1
     6     4     3   1
     7     3     9   1
     8     4     5   1
     9    10     4   1
    10     5     6   1
    11     5    11   1
    12     6    12   1
    13    13    10   1
    14    14    13   1
    15    22    13   1
    16    15    14   1
    17    14    19   1
    18    16    15   1
    19    15    20   1
    20    16    17   1
    21    21    16   1
    22    17    18   1
    23    17    22   1
    24    45    21   1
    25    23    24   1
    26    23    32   1
    27    51    23   1
    28    24    25   1
    29    24    29   1
    30    25    26   1
    31    25    30   1
    32    27    26   1
    33    26    31   1
    34    27    28   1
    35    32    27   1
    36    28    33   1
    37    31    34   1
    38    34    35   1
    39    34    43   1
    40    35    36   1
    41    35    40   1
    42    36    37   1
    43    36    41   1
    44    38    37   1
    45    37    42   1
    46    38    39   1
    47    43    38   1
    48    39    44   1
    49    46    45   1
    50    45    53   1
    51    46    47   1
    52    48    46   1
    53    48    49   1
    54    50    48   1
    55    50    51   1
    56    50    52   1
    57    52    53   1
    58    52    54   1
    59    54    55   1
    60     1    56   1
    61     2    57   1
    62     3    58   1
    63     4    59   1
    64     5    60   1
    65     6    61   1
    66     6    62   1
    67     7    63   1
    68     8    64   1
    69     9    65   1
    70    12    66   1
    71    13    67   1
    72    14    68   1
    73    15    69   1
    74    16    70   1
    75    17    71   1
    76    18    72   1
    77    18    73   1
    78    18    74   1
    79    19    75   1
    80    20    76   1
    81    21    77   1
    82    21    78   1
    83    23    79   1
    84    24    80   1
    85    25    81   1
    86    26    82   1
    87    27    83   1
    88    28    84   1
    89    28    85   1
    90    29    86   1
    91    30    87   1
    92    33    88   1
    93    34    89   1
    94    35    90   1
    95    36    91   1
    96    37    92   1
    97    38    93   1
    98    39    94   1
    99    39    95   1
   100    40    96   1
   101    41    97   1
   102    42    98   1
   103    44    99   1
   104    45   100   1
   105    46   101   1
   106    47   102   1
   107    48   103   1
   108    49   104   1
   109    50   105   1
   110    52   106   1
   111    53   107   1
   112    53   108   1
   113    54   109   1
   114    54   110   1
   115    55   111   1
@<TRIPOS>SUBSTRUCTURE
     1  MOL      1

