@<TRIPOS>MOLECULE
1xd0_ligand_062
   111   115
SMALL
GAST_HUCK
****
This file was generated by PARSER (from files_GN.cpp)

@<TRIPOS>ATOM
      1 CR1         6.3358   14.9028   35.9843 C.3         1 MOL       0.1854
      2 CR2         5.6367   14.1597   37.1531 C.3         1 MOL       0.1339
      3 CR3         5.4188   15.1125   38.3630 C.3         1 MOL       0.1144
      4 CR4         6.7377   15.8411   38.7621 C.3         1 MOL       0.1184
      5 CR5         7.3895   16.5057   37.5059 C.3         1 MOL       0.1134
      6 CR6         8.7990   17.0888   37.7791 C.3         1 MOL       0.0730
      7 OR1         5.4771   15.8595   35.3549 O.3         1 MOL      -0.3649
      8 OR2         4.3865   13.6139   36.7222 O.3         1 MOL      -0.3841
      9 OR3         4.9229   14.3531   39.4653 O.3         1 MOL      -0.3864
     10 OR4         6.5010   16.8767   39.7484 O.3         1 MOL      -0.3401
     11 OR5         7.5460   15.5370   36.4428 O.3         1 MOL      -0.3407
     12 OR6         8.7528   18.3568   38.4250 O.3         1 MOL      -0.3924
     13 CV1         6.5524   16.5355   41.1542 C.3         1 MOL       0.1886
     14 CV2         6.6159   17.8465   41.9873 C.3         1 MOL       0.1370
     15 CV3         6.9353   17.5660   43.4898 C.3         1 MOL       0.1304
     16 CV4         8.1780   16.6389   43.6556 C.3         1 MOL       0.0334
     17 CV5         7.9947   15.3531   42.7740 C.3         1 MOL       0.1038
     18 CV6         7.0148   14.2846   43.3371 C.3         1 MOL      -0.0332
     19 OV2         7.6049   18.7192   41.4282 O.3         1 MOL      -0.3840
     20 OV3         5.7910   17.0218   44.1534 O.3         1 MOL      -0.3834
     21 NV4         9.3700   17.4406   43.2567 N.4         1 MOL       0.2370
     22 OV5         7.7094   15.7174   41.4088 O.3         1 MOL      -0.3401
     23 CQ1        13.1100   17.9780   38.8747 C.3         1 MOL       0.1883
     24 CQ2        13.0575   17.5085   37.4008 C.3         1 MOL       0.1341
     25 CQ3        13.6777   16.0969   37.2442 C.3         1 MOL       0.1144
     26 CQ4        15.0868   15.9578   37.9027 C.3         1 MOL       0.1184
     27 CQ5        15.1013   16.6247   39.3139 C.3         1 MOL       0.1134
     28 CQ6        16.5068   16.8140   39.9282 C.3         1 MOL       0.0730
     29 OQ2        11.7132   17.4633   36.9302 O.3         1 MOL      -0.3841
     30 OQ3        13.7448   15.7856   35.8494 O.3         1 MOL      -0.3864
     31 OQ4        15.4865   14.5867   38.1376 O.3         1 MOL      -0.3401
     32 OQ5        14.4809   17.9278   39.3255 O.3         1 MOL      -0.3405
     33 OQ6        17.1353   15.5775   40.2278 O.3         1 MOL      -0.3924
     34 CW1        15.3402   13.5545   37.1388 C.3         1 MOL       0.1884
     35 CW2        15.8578   12.2144   37.7240 C.3         1 MOL       0.1341
     36 CW3        17.4053   12.2156   37.8451 C.3         1 MOL       0.1141
     37 CW4        18.0726   12.6511   36.5107 C.3         1 MOL       0.1119
     38 CW5        17.4422   13.9722   35.9669 C.3         1 MOL       0.1130
     39 CW6        17.9562   14.3285   34.5477 C.3         1 MOL       0.0730
     40 OW2        15.2541   11.9890   39.0027 O.3         1 MOL      -0.3841
     41 OW3        17.8652   10.9138   38.2095 O.3         1 MOL      -0.3864
     42 OW4        19.4721   12.8292   36.7161 O.3         1 MOL      -0.3865
     43 OW5        16.0035   13.8576   35.8929 O.3         1 MOL      -0.3405
     44 OW6        17.0698   15.2261   33.8837 O.3         1 MOL      -0.3924
     45 CY1        10.7517   17.0932   43.7127 C.3         1 MOL       0.0073
     46 CY2        11.7195   18.2583   43.3465 C.3         1 MOL       0.1257
     47 OY2        11.3163   19.4630   43.9907 O.3         1 MOL      -0.3835
     48 CY3        11.8346   18.4513   41.8028 C.3         1 MOL       0.1127
     49 OY3        12.7586   19.5093   41.5503 O.3         1 MOL      -0.3864
     50 CY4        12.2793   17.1269   41.0964 C.3         1 MOL       0.0953
     51 OY4        12.1906   17.1909   39.6555 O.3         1 MOL      -0.3424
     52 CY5        11.3849   15.9144   41.5218 C.3         1 MOL       0.0162
     53 CY6        11.3325   15.7909   43.0797 C.3         1 MOL       0.0002
     54 CY7        11.7425   14.5673   40.8328 C.3         1 MOL       0.0497
     55 OY7        13.1346   14.2904   40.8458 O.3         1 MOL      -0.3946
     56 H1          6.6241   14.1730   35.2237 H           1 MOL       0.0935
     57 H2          6.2757   13.3282   37.4699 H           1 MOL       0.0671
     58 H3          4.6634   15.8611   38.0954 H           1 MOL       0.0648
     59 H4          7.4398   15.0888   39.1290 H           1 MOL       0.0651
     60 H5          6.7501   17.3270   37.1585 H           1 MOL       0.0647
     61 H6          9.3161   17.2246   36.8272 H           1 MOL       0.0584
     62 H7          9.3839   16.4000   38.3917 H           1 MOL       0.0584
     63 H8          4.7476   15.3355   34.9620 H           1 MOL       0.2126
     64 H9          4.6200   12.9157   36.0739 H           1 MOL       0.2101
     65 H10         4.0420   14.0223   39.1908 H           1 MOL       0.2100
     66 H11         9.5869   18.8093   38.1674 H           1 MOL       0.2095
     67 H12         5.6442   15.9963   41.4249 H           1 MOL       0.0938
     68 H13         5.6517   18.3591   41.9087 H           1 MOL       0.0672
     69 H14         7.1255   18.5232   43.9834 H           1 MOL       0.0679
     70 H15         8.2700   16.3594   44.7095 H           1 MOL       0.0903
     71 H16         8.9352   14.8307   42.7009 H           1 MOL       0.0652
     72 H17         7.0440   13.3897   42.7111 H           1 MOL       0.0257
     73 H18         5.9872   14.6414   43.3684 H           1 MOL       0.0257
     74 H19         7.3176   14.0029   44.3505 H           1 MOL       0.0257
     75 H20         7.7276   19.4424   42.0777 H           1 MOL       0.2101
     76 H21         6.0228   17.0039   45.1052 H           1 MOL       0.2102
     77 H22         9.1967   18.3988   43.5733 H           1 MOL       0.2022
     78 H23         9.3681   17.4799   42.2386 H           1 MOL       0.2022
     79 H24        12.7864   19.0168   38.9033 H           1 MOL       0.0938
     80 H25        13.6195   18.2207   36.7822 H           1 MOL       0.0671
     81 H26        13.0081   15.3729   37.7154 H           1 MOL       0.0648
     82 H27        15.8266   16.4504   37.2654 H           1 MOL       0.0651
     83 H28        14.5591   15.9691   39.9953 H           1 MOL       0.0647
     84 H29        16.4287   17.3757   40.8642 H           1 MOL       0.0584
     85 H30        17.1442   17.3731   39.2479 H           1 MOL       0.0584
     86 H31        11.3079   18.2982   37.2402 H           1 MOL       0.2101
     87 H32        14.3670   16.4405   35.4694 H           1 MOL       0.2100
     88 H33        16.5779   15.1560   40.9181 H           1 MOL       0.2095
     89 H34        14.2780   13.4128   36.9251 H           1 MOL       0.0938
     90 H35        15.5613   11.4054   37.0531 H           1 MOL       0.0671
     91 H36        17.7020   12.9115   38.6355 H           1 MOL       0.0648
     92 H37        17.9256   11.8588   35.7683 H           1 MOL       0.0647
     93 H38        17.7080   14.8006   36.6336 H           1 MOL       0.0647
     94 H39        18.0379   13.4283   33.9354 H           1 MOL       0.0584
     95 H40        18.9406   14.7969   34.6154 H           1 MOL       0.0584
     96 H41        15.6654   12.6454   39.5990 H           1 MOL       0.2101
     97 H42        17.2418   10.5985   38.8987 H           1 MOL       0.2100
     98 H43        19.9037   12.1204   36.1924 H           1 MOL       0.2100
     99 H44        17.0423   16.0254   34.4464 H           1 MOL       0.2095
    100 H45        10.7432   16.9823   44.8017 H           1 MOL       0.0877
    101 H46        12.7151   18.0359   43.7467 H           1 MOL       0.0677
    102 H47        10.8108   19.9617   43.3213 H           1 MOL       0.2102
    103 H48        10.8695   18.7685   41.3951 H           1 MOL       0.0647
    104 H49        12.2372   20.3344   41.6593 H           1 MOL       0.2100
    105 H50        13.3028   16.9154   41.4099 H           1 MOL       0.0627
    106 H51        10.3781   16.1402   41.1613 H           1 MOL       0.0351
    107 H52        10.7466   14.9373   43.4099 H           1 MOL       0.0325
    108 H53        12.3459   15.6172   43.4571 H           1 MOL       0.0325
    109 H54        11.4063   14.5786   39.7931 H           1 MOL       0.0561
    110 H55        11.2274   13.7424   41.3281 H           1 MOL       0.0561
    111 H56        13.2182   13.5075   40.2580 H           1 MOL       0.2094
@<TRIPOS>BOND
     1     2     1   1
     2     1     7   1
     3    11     1   1
     4     3     2   1
     5     2     8   1
     6     4     3   1
     7     3     9   1
     8     4     5   1
     9    10     4   1
    10     5     6   1
    11     5    11   1
    12     6    12   1
    13    13    10   1
    14    14    13   1
    15    22    13   1
    16    15    14   1
    17    14    19   1
    18    16    15   1
    19    15    20   1
    20    16    17   1
    21    21    16   1
    22    17    18   1
    23    17    22   1
    24    45    21   1
    25    23    24   1
    26    23    32   1
    27    51    23   1
    28    24    25   1
    29    24    29   1
    30    25    26   1
    31    25    30   1
    32    27    26   1
    33    26    31   1
    34    27    28   1
    35    32    27   1
    36    28    33   1
    37    31    34   1
    38    34    35   1
    39    34    43   1
    40    35    36   1
    41    35    40   1
    42    36    37   1
    43    36    41   1
    44    38    37   1
    45    37    42   1
    46    38    39   1
    47    43    38   1
    48    39    44   1
    49    46    45   1
    50    45    53   1
    51    46    47   1
    52    48    46   1
    53    48    49   1
    54    50    48   1
    55    50    51   1
    56    50    52   1
    57    52    53   1
    58    52    54   1
    59    54    55   1
    60     1    56   1
    61     2    57   1
    62     3    58   1
    63     4    59   1
    64     5    60   1
    65     6    61   1
    66     6    62   1
    67     7    63   1
    68     8    64   1
    69     9    65   1
    70    12    66   1
    71    13    67   1
    72    14    68   1
    73    15    69   1
    74    16    70   1
    75    17    71   1
    76    18    72   1
    77    18    73   1
    78    18    74   1
    79    19    75   1
    80    20    76   1
    81    21    77   1
    82    21    78   1
    83    23    79   1
    84    24    80   1
    85    25    81   1
    86    26    82   1
    87    27    83   1
    88    28    84   1
    89    28    85   1
    90    29    86   1
    91    30    87   1
    92    33    88   1
    93    34    89   1
    94    35    90   1
    95    36    91   1
    96    37    92   1
    97    38    93   1
    98    39    94   1
    99    39    95   1
   100    40    96   1
   101    41    97   1
   102    42    98   1
   103    44    99   1
   104    45   100   1
   105    46   101   1
   106    47   102   1
   107    48   103   1
   108    49   104   1
   109    50   105   1
   110    52   106   1
   111    53   107   1
   112    53   108   1
   113    54   109   1
   114    54   110   1
   115    55   111   1
@<TRIPOS>SUBSTRUCTURE
     1  MOL      1

