@<TRIPOS>MOLECULE
1xd0_ligand_074
   111   115
SMALL
GAST_HUCK
****
This file was generated by PARSER (from files_GN.cpp)

@<TRIPOS>ATOM
      1 CR1         6.8696   11.8147   37.3903 C.3         1 MOL       0.1854
      2 CR2         7.5137   13.2172   37.4889 C.3         1 MOL       0.1339
      3 CR3         6.4554   14.3232   37.2296 C.3         1 MOL       0.1144
      4 CR4         5.1602   14.1202   38.0754 C.3         1 MOL       0.1184
      5 CR5         4.6387   12.6515   37.9841 C.3         1 MOL       0.1134
      6 CR6         3.8319   12.3103   36.7004 C.3         1 MOL       0.0730
      7 OR1         7.8064   10.8177   37.7904 O.3         1 MOL      -0.3649
      8 OR2         8.0923   13.4173   38.7787 O.3         1 MOL      -0.3841
      9 OR3         6.1282   14.3848   35.8422 O.3         1 MOL      -0.3864
     10 OR4         5.4554   14.3599   39.4720 O.3         1 MOL      -0.3401
     11 OR5         5.7137   11.7162   38.2463 O.3         1 MOL      -0.3407
     12 OR6         3.2318   11.0229   36.8172 O.3         1 MOL      -0.3924
     13 CV1         4.8842   15.5038   40.1586 C.3         1 MOL       0.1886
     14 CV2         5.8079   16.7532   40.1834 C.3         1 MOL       0.1370
     15 CV3         7.1226   16.4047   40.9376 C.3         1 MOL       0.1304
     16 CV4         6.8143   15.9144   42.3917 C.3         1 MOL       0.0334
     17 CV5         5.7439   14.7735   42.3429 C.3         1 MOL       0.1038
     18 CV6         5.1762   14.4449   43.7489 C.3         1 MOL      -0.0332
     19 OV2         6.0708   17.2489   38.8716 O.3         1 MOL      -0.3840
     20 OV3         7.9729   17.5523   40.9498 O.3         1 MOL      -0.3834
     21 NV4         8.0525   15.4294   43.0848 N.4         1 MOL       0.2370
     22 OV5         4.5995   15.1268   41.5234 O.3         1 MOL      -0.3401
     23 CQ1        13.7786   17.3381   42.9097 C.3         1 MOL       0.1883
     24 CQ2        13.8602   18.5457   41.9451 C.3         1 MOL       0.1341
     25 CQ3        13.6378   18.0403   40.4971 C.3         1 MOL       0.1144
     26 CQ4        14.7372   17.0006   40.1168 C.3         1 MOL       0.1184
     27 CQ5        14.8704   15.8978   41.2283 C.3         1 MOL       0.1134
     28 CQ6        16.1887   15.0777   41.1301 C.3         1 MOL       0.0730
     29 OQ2        12.9619   19.5729   42.3477 O.3         1 MOL      -0.3841
     30 OQ3        13.6645   19.1301   39.5788 O.3         1 MOL      -0.3864
     31 OQ4        14.3555   16.4342   38.8355 O.3         1 MOL      -0.3401
     32 OQ5        14.8543   16.4428   42.5753 O.3         1 MOL      -0.3405
     33 OQ6        17.2555   15.6651   41.8747 O.3         1 MOL      -0.3924
     34 CW1        15.2998   16.3802   37.7433 C.3         1 MOL       0.1884
     35 CW2        14.7454   17.1612   36.5217 C.3         1 MOL       0.1341
     36 CW3        13.5401   16.4207   35.8860 C.3         1 MOL       0.1141
     37 CW4        13.8856   14.9341   35.5943 C.3         1 MOL       0.1119
     38 CW5        14.4768   14.2517   36.8643 C.3         1 MOL       0.1130
     39 CW6        14.9843   12.8086   36.6136 C.3         1 MOL       0.0730
     40 OW2        14.3734   18.4856   36.8965 O.3         1 MOL      -0.3841
     41 OW3        13.1478   17.0685   34.6789 O.3         1 MOL      -0.3864
     42 OW4        12.7113   14.2591   35.1393 O.3         1 MOL      -0.3865
     43 OW5        15.5910   15.0196   37.3693 O.3         1 MOL      -0.3405
     44 OW6        14.0060   12.0384   35.9243 O.3         1 MOL      -0.3924
     45 CY1         8.5225   16.1615   44.3065 C.3         1 MOL       0.0073
     46 CY2         9.0604   17.5917   44.0361 C.3         1 MOL       0.1257
     47 OY2         8.0433   18.4198   43.4718 O.3         1 MOL      -0.3835
     48 CY3        10.3199   17.5288   43.1263 C.3         1 MOL       0.1127
     49 OY3        10.7258   18.8405   42.7567 O.3         1 MOL      -0.3864
     50 CY4        11.4854   16.7513   43.8131 C.3         1 MOL       0.0953
     51 OY4        12.5400   16.5965   42.8362 O.3         1 MOL      -0.3424
     52 CY5        11.0147   15.3188   44.2500 C.3         1 MOL       0.0162
     53 CY6         9.6428   15.3423   45.0134 C.3         1 MOL       0.0002
     54 CY7        12.0618   14.5208   45.0996 C.3         1 MOL       0.0497
     55 OY7        13.3932   15.0339   45.0461 O.3         1 MOL      -0.3946
     56 H1          6.5986   11.5991   36.3536 H           1 MOL       0.0935
     57 H2          8.3097   13.3058   36.7458 H           1 MOL       0.0671
     58 H3          6.9033   15.2929   37.4775 H           1 MOL       0.0648
     59 H4          4.3806   14.7980   37.7128 H           1 MOL       0.0651
     60 H5          3.9275   12.5154   38.8056 H           1 MOL       0.0647
     61 H6          4.4655   12.3077   35.8145 H           1 MOL       0.0584
     62 H7          3.0385   13.0431   36.5469 H           1 MOL       0.0584
     63 H8          7.2697   10.0086   37.9381 H           1 MOL       0.2126
     64 H9          8.3091   12.5237   39.1128 H           1 MOL       0.2101
     65 H10         6.9500   14.6828   35.3914 H           1 MOL       0.2100
     66 H11         2.5207   11.1302   37.4869 H           1 MOL       0.2095
     67 H12         3.9215   15.7723   39.7128 H           1 MOL       0.0938
     68 H13         5.2967   17.5505   40.7322 H           1 MOL       0.0672
     69 H14         7.6611   15.6139   40.4030 H           1 MOL       0.0679
     70 H15         6.3662   16.7534   42.9314 H           1 MOL       0.0903
     71 H16         6.1971   13.8578   41.9468 H           1 MOL       0.0652
     72 H17         4.4628   13.6144   43.6798 H           1 MOL       0.0257
     73 H18         4.6572   15.3164   44.1630 H           1 MOL       0.0257
     74 H19         5.9768   14.1537   44.4349 H           1 MOL       0.0257
     75 H20         5.3714   17.9186   38.7055 H           1 MOL       0.2101
     76 H21         8.3997   17.5556   40.0599 H           1 MOL       0.2102
     77 H22         8.8139   15.3961   42.4028 H           1 MOL       0.2022
     78 H23         7.8755   14.4590   43.3681 H           1 MOL       0.2022
     79 H24        13.9618   17.6868   43.9253 H           1 MOL       0.0938
     80 H25        14.8623   18.9855   42.0022 H           1 MOL       0.0671
     81 H26        12.6509   17.5802   40.4101 H           1 MOL       0.0648
     82 H27        15.6820   17.5525   40.0526 H           1 MOL       0.0651
     83 H28        14.0311   15.1956   41.1297 H           1 MOL       0.0647
     84 H29        16.5058   14.9614   40.0950 H           1 MOL       0.0584
     85 H30        16.0162   14.0780   41.5378 H           1 MOL       0.0584
     86 H31        12.4718   19.8369   41.5370 H           1 MOL       0.2101
     87 H32        14.4104   19.6937   39.8745 H           1 MOL       0.2100
     88 H33        17.4489   16.5291   41.4526 H           1 MOL       0.2095
     89 H34        16.2497   16.8437   38.0156 H           1 MOL       0.0938
     90 H35        15.5384   17.2486   35.7752 H           1 MOL       0.0671
     91 H36        12.6930   16.4568   36.5755 H           1 MOL       0.0648
     92 H37        14.6267   14.8923   34.7903 H           1 MOL       0.0647
     93 H38        13.7028   14.1872   37.6357 H           1 MOL       0.0647
     94 H39        15.1861   12.3235   37.5738 H           1 MOL       0.0584
     95 H40        15.9117   12.8145   36.0306 H           1 MOL       0.0584
     96 H41        13.6105   18.3878   37.5039 H           1 MOL       0.2101
     97 H42        12.7473   17.9190   34.9577 H           1 MOL       0.2100
     98 H43        12.1341   14.1817   35.9296 H           1 MOL       0.2100
     99 H44        13.9543   11.1980   36.4196 H           1 MOL       0.2095
    100 H45         7.6856   16.2234   45.0044 H           1 MOL       0.0877
    101 H46         9.3466   18.0509   44.9887 H           1 MOL       0.0677
    102 H47         7.6448   18.8818   44.2441 H           1 MOL       0.2102
    103 H48        10.0697   17.0296   42.1853 H           1 MOL       0.0647
    104 H49        10.1059   19.4632   43.2053 H           1 MOL       0.2100
    105 H50        11.8154   17.3042   44.6972 H           1 MOL       0.0627
    106 H51        10.8586   14.7516   43.3237 H           1 MOL       0.0351
    107 H52         9.2986   14.3103   45.1661 H           1 MOL       0.0325
    108 H53         9.8009   15.7817   46.0062 H           1 MOL       0.0325
    109 H54        12.1055   13.4865   44.7380 H           1 MOL       0.0561
    110 H55        11.7722   14.4802   46.1591 H           1 MOL       0.0561
    111 H56        13.5178   15.4287   45.9378 H           1 MOL       0.2094
@<TRIPOS>BOND
     1     2     1   1
     2     1     7   1
     3    11     1   1
     4     3     2   1
     5     2     8   1
     6     4     3   1
     7     3     9   1
     8     4     5   1
     9    10     4   1
    10     5     6   1
    11     5    11   1
    12     6    12   1
    13    13    10   1
    14    14    13   1
    15    22    13   1
    16    15    14   1
    17    14    19   1
    18    16    15   1
    19    15    20   1
    20    16    17   1
    21    21    16   1
    22    17    18   1
    23    17    22   1
    24    45    21   1
    25    23    24   1
    26    23    32   1
    27    51    23   1
    28    24    25   1
    29    24    29   1
    30    25    26   1
    31    25    30   1
    32    27    26   1
    33    26    31   1
    34    27    28   1
    35    32    27   1
    36    28    33   1
    37    31    34   1
    38    34    35   1
    39    34    43   1
    40    35    36   1
    41    35    40   1
    42    36    37   1
    43    36    41   1
    44    38    37   1
    45    37    42   1
    46    38    39   1
    47    43    38   1
    48    39    44   1
    49    46    45   1
    50    45    53   1
    51    46    47   1
    52    48    46   1
    53    48    49   1
    54    50    48   1
    55    50    51   1
    56    50    52   1
    57    52    53   1
    58    52    54   1
    59    54    55   1
    60     1    56   1
    61     2    57   1
    62     3    58   1
    63     4    59   1
    64     5    60   1
    65     6    61   1
    66     6    62   1
    67     7    63   1
    68     8    64   1
    69     9    65   1
    70    12    66   1
    71    13    67   1
    72    14    68   1
    73    15    69   1
    74    16    70   1
    75    17    71   1
    76    18    72   1
    77    18    73   1
    78    18    74   1
    79    19    75   1
    80    20    76   1
    81    21    77   1
    82    21    78   1
    83    23    79   1
    84    24    80   1
    85    25    81   1
    86    26    82   1
    87    27    83   1
    88    28    84   1
    89    28    85   1
    90    29    86   1
    91    30    87   1
    92    33    88   1
    93    34    89   1
    94    35    90   1
    95    36    91   1
    96    37    92   1
    97    38    93   1
    98    39    94   1
    99    39    95   1
   100    40    96   1
   101    41    97   1
   102    42    98   1
   103    44    99   1
   104    45   100   1
   105    46   101   1
   106    47   102   1
   107    48   103   1
   108    49   104   1
   109    50   105   1
   110    52   106   1
   111    53   107   1
   112    53   108   1
   113    54   109   1
   114    54   110   1
   115    55   111   1
@<TRIPOS>SUBSTRUCTURE
     1  MOL      1

