@<TRIPOS>MOLECULE
1xd0_ligand_071
   111   115
SMALL
GAST_HUCK
****
This file was generated by PARSER (from files_GN.cpp)

@<TRIPOS>ATOM
      1 CR1        10.2733   17.7953   45.2317 C.3         1 MOL       0.1854
      2 CR2        11.2351   18.9987   45.1451 C.3         1 MOL       0.1339
      3 CR3        11.9969   19.0111   43.7935 C.3         1 MOL       0.1144
      4 CR4        12.6517   17.6370   43.4587 C.3         1 MOL       0.1184
      5 CR5        11.6920   16.4347   43.7648 C.3         1 MOL       0.1134
      6 CR6        12.4216   15.0477   43.7363 C.3         1 MOL       0.0730
      7 OR1         9.1930   17.8904   44.2990 O.3         1 MOL      -0.3649
      8 OR2        10.5076   20.2024   45.3646 O.3         1 MOL      -0.3841
      9 OR3        13.0088   20.0201   43.8738 O.3         1 MOL      -0.3864
     10 OR4        12.9455   17.5182   42.0519 O.3         1 MOL      -0.3401
     11 OR5        11.0099   16.5741   45.0330 O.3         1 MOL      -0.3407
     12 OR6        12.3816   14.3595   44.9798 O.3         1 MOL      -0.3924
     13 CV1        13.8503   18.4107   41.3666 C.3         1 MOL       0.1886
     14 CV2        13.3502   18.5689   39.9113 C.3         1 MOL       0.1370
     15 CV3        13.5053   17.2279   39.1364 C.3         1 MOL       0.1304
     16 CV4        14.9917   16.7276   39.1941 C.3         1 MOL       0.0334
     17 CV5        15.4575   16.6978   40.6957 C.3         1 MOL       0.1038
     18 CV6        16.9633   16.3762   40.8698 C.3         1 MOL      -0.0332
     19 OV2        11.9866   18.9987   39.9569 O.3         1 MOL      -0.3840
     20 OV3        13.0794   17.4532   37.7910 O.3         1 MOL      -0.3834
     21 NV4        15.3062   15.3897   38.6206 N.4         1 MOL       0.2370
     22 OV5        15.2153   17.9504   41.3679 O.3         1 MOL      -0.3401
     23 CQ1        19.0374   12.7692   35.5588 C.3         1 MOL       0.1883
     24 CQ2        20.4711   13.3666   35.3827 C.3         1 MOL       0.1341
     25 CQ3        21.3710   12.4234   34.5389 C.3         1 MOL       0.1144
     26 CQ4        20.7135   12.0723   33.1677 C.3         1 MOL       0.1184
     27 CQ5        19.1903   11.7132   33.3387 C.3         1 MOL       0.1134
     28 CQ6        18.7970   10.3481   32.7126 C.3         1 MOL       0.0730
     29 OQ2        20.4240   14.6515   34.7559 O.3         1 MOL      -0.3841
     30 OQ3        21.6695   11.2348   35.2829 O.3         1 MOL      -0.3864
     31 OQ4        20.9214   13.2170   32.2945 O.3         1 MOL      -0.3401
     32 OQ5        18.7931   11.6157   34.7257 O.3         1 MOL      -0.3405
     33 OQ6        19.0546   10.3067   31.3125 O.3         1 MOL      -0.3924
     34 CW1        20.8038   13.0370   30.8634 C.3         1 MOL       0.1884
     35 CW2        21.5661   14.1529   30.0985 C.3         1 MOL       0.1341
     36 CW3        20.8119   15.5097   30.1748 C.3         1 MOL       0.1141
     37 CW4        19.3277   15.3553   29.7465 C.3         1 MOL       0.1119
     38 CW5        18.6594   14.1980   30.5472 C.3         1 MOL       0.1130
     39 CW6        17.2226   13.8647   30.0741 C.3         1 MOL       0.0730
     40 OW2        22.9072   14.2750   30.5743 O.3         1 MOL      -0.3841
     41 OW3        21.4628   16.4728   29.3453 O.3         1 MOL      -0.3864
     42 OW4        18.6414   16.5931   29.9486 O.3         1 MOL      -0.3865
     43 OW5        19.4338   12.9842   30.4178 O.3         1 MOL      -0.3405
     44 OW6        16.3065   14.9249   30.3321 O.3         1 MOL      -0.3924
     45 CY1        14.5004   14.6728   37.6012 C.3         1 MOL       0.0073
     46 CY2        14.9390   13.1759   37.6066 C.3         1 MOL       0.1257
     47 OY2        14.8713   12.6560   38.9364 O.3         1 MOL      -0.3835
     48 CY3        16.3876   12.9662   37.0762 C.3         1 MOL       0.1127
     49 OY3        16.6541   11.5614   36.9857 O.3         1 MOL      -0.3864
     50 CY4        16.6415   13.6187   35.6811 C.3         1 MOL       0.0953
     51 OY4        18.0450   13.8008   35.3850 O.3         1 MOL      -0.3424
     52 CY5        16.0263   15.0556   35.5162 C.3         1 MOL       0.0162
     53 CY6        14.6115   15.2028   36.1476 C.3         1 MOL       0.0002
     54 CY7        15.9630   15.4950   34.0190 C.3         1 MOL       0.0497
     55 OY7        17.2567   15.6540   33.4498 O.3         1 MOL      -0.3946
     56 H1          9.8433   17.7571   46.2363 H           1 MOL       0.0935
     57 H2         11.9734   18.9071   45.9467 H           1 MOL       0.0671
     58 H3         11.3033   19.2781   42.9891 H           1 MOL       0.0648
     59 H4         13.5612   17.5221   44.0556 H           1 MOL       0.0651
     60 H5         10.9130   16.4152   42.9948 H           1 MOL       0.0647
     61 H6         13.4729   15.1457   43.4670 H           1 MOL       0.0584
     62 H7         11.9620   14.3974   42.9832 H           1 MOL       0.0584
     63 H8          8.4832   18.3924   44.7674 H           1 MOL       0.2126
     64 H9         11.0631   20.9222   44.9835 H           1 MOL       0.2101
     65 H10        12.5328   20.8829   43.8096 H           1 MOL       0.2100
     66 H11        12.6261   15.0277   45.6570 H           1 MOL       0.2095
     67 H12        13.8418   19.4090   41.8144 H           1 MOL       0.0938
     68 H13        13.9397   19.3454   39.4157 H           1 MOL       0.0672
     69 H14        12.8536   16.4718   39.5777 H           1 MOL       0.0679
     70 H15        15.6056   17.4643   38.6554 H           1 MOL       0.0903
     71 H16        14.9083   15.9140   41.2201 H           1 MOL       0.0652
     72 H17        17.2684   16.5141   41.9076 H           1 MOL       0.0257
     73 H18        17.5666   17.0322   40.2411 H           1 MOL       0.0257
     74 H19        17.1673   15.3408   40.5937 H           1 MOL       0.0257
     75 H20        11.7976   19.3720   39.0733 H           1 MOL       0.2101
     76 H21        12.4598   18.2170   37.8226 H           1 MOL       0.2102
     77 H22        15.3397   14.7632   39.4244 H           1 MOL       0.2022
     78 H23        16.2539   15.4478   38.2504 H           1 MOL       0.2022
     79 H24        18.9577   12.4087   36.5867 H           1 MOL       0.0938
     80 H25        20.9251   13.5090   36.3678 H           1 MOL       0.0671
     81 H26        22.3325   12.9152   34.3664 H           1 MOL       0.0648
     82 H27        21.2707   11.2126   32.7833 H           1 MOL       0.0651
     83 H28        18.5722   12.4875   32.8745 H           1 MOL       0.0647
     84 H29        17.7272   10.1738   32.8693 H           1 MOL       0.0584
     85 H30        19.3546    9.5438   33.2011 H           1 MOL       0.0584
     86 H31        21.2339   15.1201   35.0505 H           1 MOL       0.2101
     87 H32        20.8343   10.7185   35.3232 H           1 MOL       0.2100
     88 H33        18.7790    9.4069   31.0389 H           1 MOL       0.2095
     89 H34        21.2742   12.0955   30.5713 H           1 MOL       0.0938
     90 H35        21.6328   13.8594   29.0479 H           1 MOL       0.0671
     91 H36        20.8408   15.8773   31.2055 H           1 MOL       0.0648
     92 H37        19.2848   15.1198   28.6790 H           1 MOL       0.0647
     93 H38        18.6066   14.4809   31.6000 H           1 MOL       0.0647
     94 H39        16.8587   12.9847   30.6098 H           1 MOL       0.0584
     95 H40        17.2188   13.6376   29.0036 H           1 MOL       0.0584
     96 H41        22.9876   15.1846   30.9360 H           1 MOL       0.2101
     97 H42        21.2883   17.3415   29.7615 H           1 MOL       0.2100
     98 H43        18.7183   16.7826   30.9065 H           1 MOL       0.2100
     99 H44        16.5773   15.6529   29.7368 H           1 MOL       0.2095
    100 H45        13.4498   14.7073   37.9010 H           1 MOL       0.0877
    101 H46        14.2402   12.5957   36.9923 H           1 MOL       0.0677
    102 H47        14.1564   13.1663   39.3670 H           1 MOL       0.2102
    103 H48        17.0861   13.3876   37.7944 H           1 MOL       0.0647
    104 H49        15.8168   11.0918   37.2356 H           1 MOL       0.2100
    105 H50        16.1971   12.9641   34.9197 H           1 MOL       0.0627
    106 H51        16.6727   15.7652   36.0428 H           1 MOL       0.0351
    107 H52        14.3401   16.2575   36.1242 H           1 MOL       0.0325
    108 H53        13.8812   14.6688   35.5322 H           1 MOL       0.0325
    109 H54        15.4451   16.4539   33.9251 H           1 MOL       0.0561
    110 H55        15.4083   14.7567   33.4278 H           1 MOL       0.0561
    111 H56        17.0863   16.0047   32.5543 H           1 MOL       0.2094
@<TRIPOS>BOND
     1     2     1   1
     2     1     7   1
     3    11     1   1
     4     3     2   1
     5     2     8   1
     6     4     3   1
     7     3     9   1
     8     4     5   1
     9    10     4   1
    10     5     6   1
    11     5    11   1
    12     6    12   1
    13    13    10   1
    14    14    13   1
    15    22    13   1
    16    15    14   1
    17    14    19   1
    18    16    15   1
    19    15    20   1
    20    16    17   1
    21    21    16   1
    22    17    18   1
    23    17    22   1
    24    45    21   1
    25    23    24   1
    26    23    32   1
    27    51    23   1
    28    24    25   1
    29    24    29   1
    30    25    26   1
    31    25    30   1
    32    27    26   1
    33    26    31   1
    34    27    28   1
    35    32    27   1
    36    28    33   1
    37    31    34   1
    38    34    35   1
    39    34    43   1
    40    35    36   1
    41    35    40   1
    42    36    37   1
    43    36    41   1
    44    38    37   1
    45    37    42   1
    46    38    39   1
    47    43    38   1
    48    39    44   1
    49    46    45   1
    50    45    53   1
    51    46    47   1
    52    48    46   1
    53    48    49   1
    54    50    48   1
    55    50    51   1
    56    50    52   1
    57    52    53   1
    58    52    54   1
    59    54    55   1
    60     1    56   1
    61     2    57   1
    62     3    58   1
    63     4    59   1
    64     5    60   1
    65     6    61   1
    66     6    62   1
    67     7    63   1
    68     8    64   1
    69     9    65   1
    70    12    66   1
    71    13    67   1
    72    14    68   1
    73    15    69   1
    74    16    70   1
    75    17    71   1
    76    18    72   1
    77    18    73   1
    78    18    74   1
    79    19    75   1
    80    20    76   1
    81    21    77   1
    82    21    78   1
    83    23    79   1
    84    24    80   1
    85    25    81   1
    86    26    82   1
    87    27    83   1
    88    28    84   1
    89    28    85   1
    90    29    86   1
    91    30    87   1
    92    33    88   1
    93    34    89   1
    94    35    90   1
    95    36    91   1
    96    37    92   1
    97    38    93   1
    98    39    94   1
    99    39    95   1
   100    40    96   1
   101    41    97   1
   102    42    98   1
   103    44    99   1
   104    45   100   1
   105    46   101   1
   106    47   102   1
   107    48   103   1
   108    49   104   1
   109    50   105   1
   110    52   106   1
   111    53   107   1
   112    53   108   1
   113    54   109   1
   114    54   110   1
   115    55   111   1
@<TRIPOS>SUBSTRUCTURE
     1  MOL      1

