@<TRIPOS>MOLECULE
1xd0_ligand_013
   111   115
SMALL
GAST_HUCK
****
This file was generated by PARSER (from files_GN.cpp)

@<TRIPOS>ATOM
      1 CR1        14.3736   16.3222   38.7611 C.3         1 MOL       0.1854
      2 CR2        12.9264   16.8240   38.5376 C.3         1 MOL       0.1339
      3 CR3        12.4872   17.8221   39.6495 C.3         1 MOL       0.1144
      4 CR4        12.7502   17.2307   41.0722 C.3         1 MOL       0.1184
      5 CR5        14.2259   16.7237   41.1628 C.3         1 MOL       0.1134
      6 CR6        14.5545   16.0126   42.5028 C.3         1 MOL       0.0730
      7 OR1        15.3160   17.3566   38.4913 O.3         1 MOL      -0.3649
      8 OR2        12.8206   17.4071   37.2388 O.3         1 MOL      -0.3841
      9 OR3        11.0960   18.0785   39.4703 O.3         1 MOL      -0.3864
     10 OR4        12.5550   18.0794   42.2259 O.3         1 MOL      -0.3401
     11 OR5        14.5346   15.8017   40.0959 O.3         1 MOL      -0.3407
     12 OR6        13.8546   14.7776   42.6241 O.3         1 MOL      -0.3924
     13 CV1        11.6743   19.2136   42.3471 C.3         1 MOL       0.1886
     14 CV2        11.4292   19.4831   43.8572 C.3         1 MOL       0.1370
     15 CV3        10.5242   18.3727   44.4709 C.3         1 MOL       0.1304
     16 CV4         9.2139   18.1743   43.6500 C.3         1 MOL       0.0334
     17 CV5         9.5219   18.0584   42.1226 C.3         1 MOL       0.1038
     18 CV6         8.2707   18.1675   41.2113 C.3         1 MOL      -0.0332
     19 OV2        12.6680   19.5600   44.5673 O.3         1 MOL      -0.3840
     20 OV3        10.1966   18.7375   45.8141 O.3         1 MOL      -0.3834
     21 NV4         8.2910   17.1557   44.2295 N.4         1 MOL       0.2370
     22 OV5        10.4030   19.1071   41.6781 O.3         1 MOL      -0.3401
     23 CQ1         3.4558   15.3807   42.6229 C.3         1 MOL       0.1883
     24 CQ2         3.0448   14.0262   41.9730 C.3         1 MOL       0.1341
     25 CQ3         2.3443   14.2061   40.5903 C.3         1 MOL       0.1144
     26 CQ4         3.0870   15.2482   39.6886 C.3         1 MOL       0.1184
     27 CQ5         3.4145   16.5758   40.4474 C.3         1 MOL       0.1134
     28 CQ6         2.2906   17.6484   40.5578 C.3         1 MOL       0.0730
     29 OQ2         4.1799   13.1753   41.8410 O.3         1 MOL      -0.3841
     30 OQ3         0.9651   14.5693   40.7628 O.3         1 MOL      -0.3864
     31 OQ4         4.3903   14.7839   39.2536 O.3         1 MOL      -0.3401
     32 OQ5         4.0747   16.2959   41.6998 O.3         1 MOL      -0.3405
     33 OQ6         0.9792   17.1700   40.8409 O.3         1 MOL      -0.3924
     34 CW1         4.5194   13.5860   38.4773 C.3         1 MOL       0.1884
     35 CW2         6.0351   13.3229   38.2805 C.3         1 MOL       0.1341
     36 CW3         6.2450   12.0303   37.4501 C.3         1 MOL       0.1141
     37 CW4         5.4150   12.0477   36.1331 C.3         1 MOL       0.1119
     38 CW5         3.9412   12.5313   36.3376 C.3         1 MOL       0.1130
     39 CW6         2.9659   11.4159   36.8037 C.3         1 MOL       0.0730
     40 OW2         6.6535   14.4316   37.6249 O.3         1 MOL      -0.3841
     41 OW3         5.9107   10.9055   38.2624 O.3         1 MOL      -0.3864
     42 OW4         6.0536   12.9218   35.1975 O.3         1 MOL      -0.3865
     43 OW5         3.8774   13.7034   37.1871 O.3         1 MOL      -0.3405
     44 OW6         2.0598   11.9268   37.7767 O.3         1 MOL      -0.3924
     45 CY1         8.5423   15.6728   44.2927 C.3         1 MOL       0.0073
     46 CY2         8.0904   14.8569   43.0439 C.3         1 MOL       0.1257
     47 OY2         8.9217   15.1019   41.9113 O.3         1 MOL      -0.3835
     48 CY3         6.5896   15.0926   42.7316 C.3         1 MOL       0.1127
     49 OY3         6.2795   14.3241   41.5656 O.3         1 MOL      -0.3864
     50 CY4         5.6344   14.7512   43.9185 C.3         1 MOL       0.0953
     51 OY4         4.2846   15.2878   43.8055 O.3         1 MOL      -0.3424
     52 CY5         6.1773   15.2723   45.3044 C.3         1 MOL       0.0162
     53 CY6         7.7222   15.0992   45.4876 C.3         1 MOL       0.0002
     54 CY7         5.4230   14.6485   46.5162 C.3         1 MOL       0.0497
     55 OY7         4.4205   15.5289   47.0109 O.3         1 MOL      -0.3946
     56 H1         14.5743   15.5063   38.0620 H           1 MOL       0.0935
     57 H2         12.2619   15.9553   38.5643 H           1 MOL       0.0671
     58 H3         13.0334   18.7639   39.5446 H           1 MOL       0.0648
     59 H4         12.0891   16.3706   41.1924 H           1 MOL       0.0651
     60 H5         14.8984   17.5867   41.0910 H           1 MOL       0.0647
     61 H6         14.2861   16.6527   43.3450 H           1 MOL       0.0584
     62 H7         15.6275   15.8130   42.5601 H           1 MOL       0.0584
     63 H8         16.0526   17.1915   39.1129 H           1 MOL       0.2126
     64 H9         12.1950   18.1553   37.3400 H           1 MOL       0.2101
     65 H10        11.0424   18.8557   38.8791 H           1 MOL       0.2100
     66 H11        14.2181   14.3617   43.4341 H           1 MOL       0.2095
     67 H12        12.1863   20.0787   41.9212 H           1 MOL       0.0938
     68 H13        10.9261   20.4512   43.9649 H           1 MOL       0.0672
     69 H14        11.0834   17.4338   44.4906 H           1 MOL       0.0679
     70 H15         8.6596   19.1116   43.7668 H           1 MOL       0.0903
     71 H16        10.0243   17.1151   41.9225 H           1 MOL       0.0652
     72 H17         8.5683   18.3639   40.1785 H           1 MOL       0.0257
     73 H18         7.6125   18.9782   41.5355 H           1 MOL       0.0257
     74 H19         7.7112   17.2379   41.2145 H           1 MOL       0.0257
     75 H20        12.8900   20.5152   44.5900 H           1 MOL       0.2101
     76 H21        10.6538   18.0671   46.3564 H           1 MOL       0.2102
     77 H22         7.3937   17.2952   43.7652 H           1 MOL       0.2022
     78 H23         8.1485   17.4639   45.1968 H           1 MOL       0.2022
     79 H24         2.5332   15.8452   42.9852 H           1 MOL       0.0938
     80 H25         2.3626   13.5066   42.6429 H           1 MOL       0.0671
     81 H26         2.3260   13.2417   40.0710 H           1 MOL       0.0648
     82 H27         2.4754   15.4930   38.8093 H           1 MOL       0.0651
     83 H28         4.1895   17.0928   39.8649 H           1 MOL       0.0647
     84 H29         2.2286   18.1970   39.6089 H           1 MOL       0.0584
     85 H30         2.5773   18.3621   41.3375 H           1 MOL       0.0584
     86 H31         4.6690   13.5213   41.0644 H           1 MOL       0.2101
     87 H32         0.5175   13.7813   41.1458 H           1 MOL       0.2100
     88 H33         0.9870   16.9250   41.7896 H           1 MOL       0.2095
     89 H34         4.0800   12.7696   39.0519 H           1 MOL       0.0938
     90 H35         6.5233   13.2047   39.2500 H           1 MOL       0.0671
     91 H36         7.3050   11.9372   37.2034 H           1 MOL       0.0648
     92 H37         5.4168   11.0502   35.6836 H           1 MOL       0.0647
     93 H38         3.5660   12.8539   35.3612 H           1 MOL       0.0647
     94 H39         3.5088   10.5817   37.2409 H           1 MOL       0.0584
     95 H40         2.3927   11.0422   35.9522 H           1 MOL       0.0584
     96 H41         6.6361   15.1677   38.2750 H           1 MOL       0.2101
     97 H42         6.0499   10.1191   37.6924 H           1 MOL       0.2100
     98 H43         6.8725   12.4552   34.9225 H           1 MOL       0.2100
     99 H44         1.3622   11.2443   37.8555 H           1 MOL       0.2095
    100 H45         9.5997   15.4853   44.4869 H           1 MOL       0.0877
    101 H46         8.2235   13.7915   43.2643 H           1 MOL       0.0677
    102 H47         9.0324   14.2307   41.4807 H           1 MOL       0.2102
    103 H48         6.4436   16.1286   42.4682 H           1 MOL       0.0647
    104 H49         6.3378   13.3786   41.8338 H           1 MOL       0.2100
    105 H50         5.5536   13.6617   43.9740 H           1 MOL       0.0627
    106 H51         5.9949   16.3488   45.3386 H           1 MOL       0.0351
    107 H52         8.0434   15.6105   46.4042 H           1 MOL       0.0325
    108 H53         7.9644   14.0406   45.6244 H           1 MOL       0.0325
    109 H54         6.1101   14.4519   47.3450 H           1 MOL       0.0561
    110 H55         4.9576   13.7019   46.2347 H           1 MOL       0.0561
    111 H56         4.8460   15.9857   47.7692 H           1 MOL       0.2094
@<TRIPOS>BOND
     1     2     1   1
     2     1     7   1
     3    11     1   1
     4     3     2   1
     5     2     8   1
     6     4     3   1
     7     3     9   1
     8     4     5   1
     9    10     4   1
    10     5     6   1
    11     5    11   1
    12     6    12   1
    13    13    10   1
    14    14    13   1
    15    22    13   1
    16    15    14   1
    17    14    19   1
    18    16    15   1
    19    15    20   1
    20    16    17   1
    21    21    16   1
    22    17    18   1
    23    17    22   1
    24    45    21   1
    25    23    24   1
    26    23    32   1
    27    51    23   1
    28    24    25   1
    29    24    29   1
    30    25    26   1
    31    25    30   1
    32    27    26   1
    33    26    31   1
    34    27    28   1
    35    32    27   1
    36    28    33   1
    37    31    34   1
    38    34    35   1
    39    34    43   1
    40    35    36   1
    41    35    40   1
    42    36    37   1
    43    36    41   1
    44    38    37   1
    45    37    42   1
    46    38    39   1
    47    43    38   1
    48    39    44   1
    49    46    45   1
    50    45    53   1
    51    46    47   1
    52    48    46   1
    53    48    49   1
    54    50    48   1
    55    50    51   1
    56    50    52   1
    57    52    53   1
    58    52    54   1
    59    54    55   1
    60     1    56   1
    61     2    57   1
    62     3    58   1
    63     4    59   1
    64     5    60   1
    65     6    61   1
    66     6    62   1
    67     7    63   1
    68     8    64   1
    69     9    65   1
    70    12    66   1
    71    13    67   1
    72    14    68   1
    73    15    69   1
    74    16    70   1
    75    17    71   1
    76    18    72   1
    77    18    73   1
    78    18    74   1
    79    19    75   1
    80    20    76   1
    81    21    77   1
    82    21    78   1
    83    23    79   1
    84    24    80   1
    85    25    81   1
    86    26    82   1
    87    27    83   1
    88    28    84   1
    89    28    85   1
    90    29    86   1
    91    30    87   1
    92    33    88   1
    93    34    89   1
    94    35    90   1
    95    36    91   1
    96    37    92   1
    97    38    93   1
    98    39    94   1
    99    39    95   1
   100    40    96   1
   101    41    97   1
   102    42    98   1
   103    44    99   1
   104    45   100   1
   105    46   101   1
   106    47   102   1
   107    48   103   1
   108    49   104   1
   109    50   105   1
   110    52   106   1
   111    53   107   1
   112    53   108   1
   113    54   109   1
   114    54   110   1
   115    55   111   1
@<TRIPOS>SUBSTRUCTURE
     1  MOL      1

