@<TRIPOS>MOLECULE
1xd0_ligand_077
   111   115
SMALL
GAST_HUCK
****
This file was generated by PARSER (from files_GN.cpp)

@<TRIPOS>ATOM
      1 CR1        16.0098   15.7826   38.7962 C.3         1 MOL       0.1854
      2 CR2        16.1250   15.5321   40.3198 C.3         1 MOL       0.1339
      3 CR3        14.7385   15.6606   41.0122 C.3         1 MOL       0.1144
      4 CR4        14.0239   17.0086   40.6431 C.3         1 MOL       0.1184
      5 CR5        14.0125   17.1609   39.0870 C.3         1 MOL       0.1134
      6 CR6        13.4757   18.5301   38.6062 C.3         1 MOL       0.0730
      7 OR1        15.3510   14.7028   38.1267 O.3         1 MOL      -0.3649
      8 OR2        16.7121   14.2473   40.5330 O.3         1 MOL      -0.3841
      9 OR3        14.9402   15.5503   42.4225 O.3         1 MOL      -0.3864
     10 OR4        12.6506   17.1542   41.0929 O.3         1 MOL      -0.3401
     11 OR5        15.3412   17.0336   38.5359 O.3         1 MOL      -0.3407
     12 OR6        12.4392   19.0133   39.4594 O.3         1 MOL      -0.3924
     13 CV1        12.3185   17.2083   42.4960 C.3         1 MOL       0.1886
     14 CV2        11.6372   15.8699   42.8548 C.3         1 MOL       0.1370
     15 CV3        11.3724   15.8299   44.3798 C.3         1 MOL       0.1304
     16 CV4        10.3503   16.9415   44.7766 C.3         1 MOL       0.0334
     17 CV5        10.7799   18.3181   44.1139 C.3         1 MOL       0.1038
     18 CV6        11.7413   19.1700   44.9796 C.3         1 MOL      -0.0332
     19 OV2        10.4185   15.7914   42.0656 O.3         1 MOL      -0.3840
     20 OV3        12.6062   15.9521   45.0967 O.3         1 MOL      -0.3834
     21 NV4         8.9195   16.6083   44.4550 N.4         1 MOL       0.2370
     22 OV5        11.3318   18.2300   42.7682 O.3         1 MOL      -0.3401
     23 CQ1         4.1279   15.9697   41.2132 C.3         1 MOL       0.1883
     24 CQ2         3.3738   17.2557   40.7919 C.3         1 MOL       0.1341
     25 CQ3         2.4895   16.9981   39.5432 C.3         1 MOL       0.1144
     26 CQ4         1.5641   15.7545   39.7299 C.3         1 MOL       0.1184
     27 CQ5         2.3584   14.5302   40.2958 C.3         1 MOL       0.1134
     28 CQ6         3.1625   13.7265   39.2337 C.3         1 MOL       0.0730
     29 OQ2         2.5749   17.7566   41.8665 O.3         1 MOL      -0.3841
     30 OQ3         3.3146   16.8429   38.3879 O.3         1 MOL      -0.3864
     31 OQ4         0.4791   16.0110   40.6548 O.3         1 MOL      -0.3401
     32 OQ5         3.1870   14.8988   41.4279 O.3         1 MOL      -0.3405
     33 OQ6         2.3540   12.7077   38.6514 O.3         1 MOL      -0.3924
     34 CW1        -0.6362   16.8284   40.2280 C.3         1 MOL       0.1884
     35 CW2        -1.6471   17.0018   41.3937 C.3         1 MOL       0.1341
     36 CW3        -2.4108   15.6823   41.6626 C.3         1 MOL       0.1141
     37 CW4        -3.0772   15.1816   40.3505 C.3         1 MOL       0.1119
     38 CW5        -1.9967   15.0440   39.2365 C.3         1 MOL       0.1130
     39 CW6        -2.5838   14.6475   37.8588 C.3         1 MOL       0.0730
     40 OW2        -0.9849   17.4417   42.5786 O.3         1 MOL      -0.3841
     41 OW3        -3.3742   15.8775   42.6990 O.3         1 MOL      -0.3864
     42 OW4        -3.7666   13.9540   40.5751 O.3         1 MOL      -0.3865
     43 OW5        -1.3055   16.3016   39.0628 O.3         1 MOL      -0.3405
     44 OW6        -3.1553   13.3400   37.8701 O.3         1 MOL      -0.3924
     45 CY1         8.4073   15.1868   44.5168 C.3         1 MOL       0.0073
     46 CY2         8.1925   14.4836   43.1249 C.3         1 MOL       0.1257
     47 OY2         9.4238   14.2874   42.3712 O.3         1 MOL      -0.3835
     48 CY3         7.1022   15.2140   42.2829 C.3         1 MOL       0.1127
     49 OY3         6.9098   14.5198   41.0490 O.3         1 MOL      -0.3864
     50 CY4         5.7349   15.3006   43.0419 C.3         1 MOL       0.0953
     51 OY4         4.8555   16.2667   42.4184 O.3         1 MOL      -0.3424
     52 CY5         5.8846   15.7840   44.5254 C.3         1 MOL       0.0162
     53 CY6         7.0659   15.1270   45.2897 C.3         1 MOL       0.0002
     54 CY7         4.5548   15.6206   45.3267 C.3         1 MOL       0.0497
     55 OY7         4.3828   14.3280   45.9074 O.3         1 MOL      -0.3946
     56 H1         17.0183   15.8551   38.3801 H           1 MOL       0.0935
     57 H2         16.8022   16.2846   40.7349 H           1 MOL       0.0671
     58 H3         14.1052   14.8306   40.6875 H           1 MOL       0.0648
     59 H4         14.6073   17.8317   41.0704 H           1 MOL       0.0651
     60 H5         13.3736   16.3875   38.6519 H           1 MOL       0.0647
     61 H6         13.0707   18.4265   37.5957 H           1 MOL       0.0584
     62 H7         14.2879   19.2599   38.5752 H           1 MOL       0.0584
     63 H8         15.1307   15.0583   37.2385 H           1 MOL       0.2126
     64 H9         16.8660   14.1815   41.4967 H           1 MOL       0.2101
     65 H10        14.9786   14.5886   42.6097 H           1 MOL       0.2100
     66 H11        11.7887   19.4351   38.8556 H           1 MOL       0.2095
     67 H12        13.2130   17.4043   43.0977 H           1 MOL       0.0938
     68 H13        12.2508   15.0010   42.5962 H           1 MOL       0.0672
     69 H14        11.0234   14.8318   44.6351 H           1 MOL       0.0679
     70 H15        10.3790   17.0418   45.8663 H           1 MOL       0.0903
     71 H16         9.8744   18.9262   44.0090 H           1 MOL       0.0652
     72 H17        12.0074   20.0906   44.4567 H           1 MOL       0.0257
     73 H18        12.6569   18.6239   45.2060 H           1 MOL       0.0257
     74 H19        11.2497   19.4409   45.9137 H           1 MOL       0.0257
     75 H20        10.1592   16.7144   41.8760 H           1 MOL       0.2101
     76 H21        12.3733   16.2110   46.0124 H           1 MOL       0.2102
     77 H22         8.7054   16.9751   43.5294 H           1 MOL       0.2022
     78 H23         8.3667   17.1490   45.1334 H           1 MOL       0.2022
     79 H24         4.8338   15.7087   40.4262 H           1 MOL       0.0938
     80 H25         4.1080   18.0292   40.5588 H           1 MOL       0.0671
     81 H26         1.8868   17.8874   39.3510 H           1 MOL       0.0648
     82 H27         1.1445   15.4766   38.7598 H           1 MOL       0.0651
     83 H28         1.6287   13.8173   40.6998 H           1 MOL       0.0647
     84 H29         4.0202   13.2540   39.7140 H           1 MOL       0.0584
     85 H30         3.5352   14.3726   38.4410 H           1 MOL       0.0584
     86 H31         1.9383   17.0434   42.0846 H           1 MOL       0.2101
     87 H32         3.5473   17.7563   38.1129 H           1 MOL       0.2100
     88 H33         2.9564   12.2205   38.0505 H           1 MOL       0.2095
     89 H34        -0.2722   17.8233   39.9723 H           1 MOL       0.0938
     90 H35        -2.3715   17.7707   41.1154 H           1 MOL       0.0671
     91 H36        -1.7010   14.9323   42.0220 H           1 MOL       0.0648
     92 H37        -3.8244   15.9151   40.0348 H           1 MOL       0.0647
     93 H38        -1.2760   14.2720   39.5195 H           1 MOL       0.0647
     94 H39        -1.7917   14.6619   37.1011 H           1 MOL       0.0584
     95 H40        -3.3553   15.3625   37.5549 H           1 MOL       0.0584
     96 H41        -0.7389   18.3738   42.3993 H           1 MOL       0.2101
     97 H42        -3.8684   15.0316   42.7575 H           1 MOL       0.2100
     98 H43        -3.0841   13.3256   40.8830 H           1 MOL       0.2100
     99 H44        -2.3994   12.7325   38.0191 H           1 MOL       0.2095
    100 H45         9.0833   14.5704   45.1147 H           1 MOL       0.0877
    101 H46         7.8311   13.4643   43.3164 H           1 MOL       0.0677
    102 H47         9.1322   14.1008   41.4586 H           1 MOL       0.2102
    103 H48         7.4347   16.2240   42.0405 H           1 MOL       0.0647
    104 H49         7.1001   15.1630   40.3386 H           1 MOL       0.2100
    105 H50         5.2730   14.3084   43.0422 H           1 MOL       0.0627
    106 H51         6.0980   16.8609   44.4902 H           1 MOL       0.0351
    107 H52         7.1974   15.6109   46.2565 H           1 MOL       0.0325
    108 H53         6.8292   14.0816   45.4879 H           1 MOL       0.0325
    109 H54         3.6943   15.8143   44.6850 H           1 MOL       0.0561
    110 H55         4.5361   16.3518   46.1414 H           1 MOL       0.0561
    111 H56         4.2627   13.7131   45.1523 H           1 MOL       0.2094
@<TRIPOS>BOND
     1     2     1   1
     2     1     7   1
     3    11     1   1
     4     3     2   1
     5     2     8   1
     6     4     3   1
     7     3     9   1
     8     4     5   1
     9    10     4   1
    10     5     6   1
    11     5    11   1
    12     6    12   1
    13    13    10   1
    14    14    13   1
    15    22    13   1
    16    15    14   1
    17    14    19   1
    18    16    15   1
    19    15    20   1
    20    16    17   1
    21    21    16   1
    22    17    18   1
    23    17    22   1
    24    45    21   1
    25    23    24   1
    26    23    32   1
    27    51    23   1
    28    24    25   1
    29    24    29   1
    30    25    26   1
    31    25    30   1
    32    27    26   1
    33    26    31   1
    34    27    28   1
    35    32    27   1
    36    28    33   1
    37    31    34   1
    38    34    35   1
    39    34    43   1
    40    35    36   1
    41    35    40   1
    42    36    37   1
    43    36    41   1
    44    38    37   1
    45    37    42   1
    46    38    39   1
    47    43    38   1
    48    39    44   1
    49    46    45   1
    50    45    53   1
    51    46    47   1
    52    48    46   1
    53    48    49   1
    54    50    48   1
    55    50    51   1
    56    50    52   1
    57    52    53   1
    58    52    54   1
    59    54    55   1
    60     1    56   1
    61     2    57   1
    62     3    58   1
    63     4    59   1
    64     5    60   1
    65     6    61   1
    66     6    62   1
    67     7    63   1
    68     8    64   1
    69     9    65   1
    70    12    66   1
    71    13    67   1
    72    14    68   1
    73    15    69   1
    74    16    70   1
    75    17    71   1
    76    18    72   1
    77    18    73   1
    78    18    74   1
    79    19    75   1
    80    20    76   1
    81    21    77   1
    82    21    78   1
    83    23    79   1
    84    24    80   1
    85    25    81   1
    86    26    82   1
    87    27    83   1
    88    28    84   1
    89    28    85   1
    90    29    86   1
    91    30    87   1
    92    33    88   1
    93    34    89   1
    94    35    90   1
    95    36    91   1
    96    37    92   1
    97    38    93   1
    98    39    94   1
    99    39    95   1
   100    40    96   1
   101    41    97   1
   102    42    98   1
   103    44    99   1
   104    45   100   1
   105    46   101   1
   106    47   102   1
   107    48   103   1
   108    49   104   1
   109    50   105   1
   110    52   106   1
   111    53   107   1
   112    53   108   1
   113    54   109   1
   114    54   110   1
   115    55   111   1
@<TRIPOS>SUBSTRUCTURE
     1  MOL      1

