@<TRIPOS>MOLECULE
1xd0_ligand_055
   111   115
SMALL
GAST_HUCK
****
This file was generated by PARSER (from files_GN.cpp)

@<TRIPOS>ATOM
      1 CR1         3.1451   13.7853   34.6923 C.3         1 MOL       0.1854
      2 CR2         4.0490   12.9511   35.6400 C.3         1 MOL       0.1339
      3 CR3         4.0547   13.5590   37.0675 C.3         1 MOL       0.1144
      4 CR4         4.3899   15.0830   37.0319 C.3         1 MOL       0.1184
      5 CR5         3.4691   15.8260   36.0091 C.3         1 MOL       0.1134
      6 CR6         3.8690   17.3097   35.8072 C.3         1 MOL       0.0730
      7 OR1         1.7631   13.6201   35.0127 O.3         1 MOL      -0.3649
      8 OR2         3.6037   11.5954   35.6854 O.3         1 MOL      -0.3841
      9 OR3         5.0147   12.8803   37.8804 O.3         1 MOL      -0.3864
     10 OR4         4.4307   15.7497   38.3177 O.3         1 MOL      -0.3401
     11 OR5         3.5160   15.1812   34.7154 O.3         1 MOL      -0.3407
     12 OR6         5.1841   17.4321   35.2703 O.3         1 MOL      -0.3924
     13 CV1         3.3704   15.5852   39.2835 C.3         1 MOL       0.1886
     14 CV2         3.2907   16.8460   40.1853 C.3         1 MOL       0.1370
     15 CV3         2.3414   16.6129   41.3991 C.3         1 MOL       0.1304
     16 CV4         2.6650   15.2878   42.1653 C.3         1 MOL       0.0334
     17 CV5         2.7897   14.0942   41.1555 C.3         1 MOL       0.1038
     18 CV6         1.4442   13.5014   40.6510 C.3         1 MOL      -0.0332
     19 OV2         4.5890   17.2187   40.6508 O.3         1 MOL      -0.3840
     20 OV3         0.9798   16.6146   40.9661 O.3         1 MOL      -0.3834
     21 NV4         3.8435   15.5496   43.0522 N.4         1 MOL       0.2370
     22 OV5         3.6801   14.4163   40.0674 O.3         1 MOL      -0.3401
     23 CQ1         9.5812   16.6942   44.9748 C.3         1 MOL       0.1883
     24 CQ2        10.3012   18.0684   44.9803 C.3         1 MOL       0.1341
     25 CQ3        11.0023   18.3312   43.6201 C.3         1 MOL       0.1144
     26 CQ4        11.9625   17.1625   43.2368 C.3         1 MOL       0.1184
     27 CQ5        11.2182   15.7970   43.3819 C.3         1 MOL       0.1134
     28 CQ6        12.1386   14.5597   43.1498 C.3         1 MOL       0.0730
     29 OQ2         9.4260   19.1360   45.3305 O.3         1 MOL      -0.3841
     30 OQ3        11.7237   19.5583   43.6912 O.3         1 MOL      -0.3864
     31 OQ4        12.3436   17.2861   41.8484 O.3         1 MOL      -0.3401
     32 OQ5        10.5523   15.6680   44.6596 O.3         1 MOL      -0.3405
     33 OQ6        11.7665   13.8915   41.9408 O.3         1 MOL      -0.3924
     34 CW1        13.4805   18.0991   41.4781 C.3         1 MOL       0.1884
     35 CW2        13.2749   18.5925   40.0177 C.3         1 MOL       0.1341
     36 CW3        13.4321   17.4171   39.0096 C.3         1 MOL       0.1141
     37 CW4        14.7589   16.6485   39.2600 C.3         1 MOL       0.1119
     38 CW5        14.8552   16.2141   40.7536 C.3         1 MOL       0.1130
     39 CW6        16.1638   15.4612   41.1080 C.3         1 MOL       0.0730
     40 OW2        11.9811   19.1956   39.9100 O.3         1 MOL      -0.3841
     41 OW3        13.4133   17.9085   37.6703 O.3         1 MOL      -0.3864
     42 OW4        14.8326   15.5038   38.4105 O.3         1 MOL      -0.3865
     43 OW5        14.7194   17.3653   41.6193 O.3         1 MOL      -0.3405
     44 OW6        17.2928   15.9079   40.3631 O.3         1 MOL      -0.3924
     45 CY1         4.6878   14.4580   43.6267 C.3         1 MOL       0.0073
     46 CY2         5.1899   14.8160   45.0574 C.3         1 MOL       0.1257
     47 OY2         4.0911   15.2189   45.8858 O.3         1 MOL      -0.3835
     48 CY3         6.3021   15.9089   45.0685 C.3         1 MOL       0.1127
     49 OY3         6.7208   16.0676   46.4225 O.3         1 MOL      -0.3864
     50 CY4         7.5039   15.5851   44.1122 C.3         1 MOL       0.0953
     51 OY4         8.4381   16.6971   44.0746 O.3         1 MOL      -0.3424
     52 CY5         6.9526   15.3061   42.6695 C.3         1 MOL       0.0162
     53 CY6         5.9115   14.1426   42.7145 C.3         1 MOL       0.0002
     54 CY7         8.0378   15.0221   41.5905 C.3         1 MOL       0.0497
     55 OY7         8.5951   16.2409   41.1007 O.3         1 MOL      -0.3946
     56 H1          3.2879   13.4235   33.6687 H           1 MOL       0.0935
     57 H2          5.0699   12.9578   35.2441 H           1 MOL       0.0671
     58 H3          3.0661   13.4120   37.5120 H           1 MOL       0.0648
     59 H4          5.4133   15.1604   36.6516 H           1 MOL       0.0651
     60 H5          2.4360   15.8086   36.3754 H           1 MOL       0.0647
     61 H6          3.8202   17.8449   36.7586 H           1 MOL       0.0584
     62 H7          3.1664   17.7803   35.1149 H           1 MOL       0.0584
     63 H8          1.3028   14.3318   34.5155 H           1 MOL       0.2126
     64 H9          3.7961   11.2281   34.7933 H           1 MOL       0.2101
     65 H10         4.6636   11.9680   37.9849 H           1 MOL       0.2100
     66 H11         5.3326   18.3974   35.1858 H           1 MOL       0.2095
     67 H12         2.4132   15.4627   38.7699 H           1 MOL       0.0938
     68 H13         2.9116   17.6829   39.5920 H           1 MOL       0.0672
     69 H14         2.4375   17.4610   42.0830 H           1 MOL       0.0679
     70 H15         1.8306   15.0773   42.8429 H           1 MOL       0.0903
     71 H16         3.2544   13.2605   41.6758 H           1 MOL       0.0652
     72 H17         1.6421   12.6411   40.0043 H           1 MOL       0.0257
     73 H18         0.8636   14.2295   40.0844 H           1 MOL       0.0257
     74 H19         0.8436   13.1596   41.4980 H           1 MOL       0.0257
     75 H20         5.1008   17.4519   39.8475 H           1 MOL       0.2101
     76 H21         0.8155   17.5163   40.6185 H           1 MOL       0.2102
     77 H22         3.4632   16.0655   43.8477 H           1 MOL       0.2022
     78 H23         4.4615   16.1901   42.5617 H           1 MOL       0.2022
     79 H24         9.2459   16.5052   45.9964 H           1 MOL       0.0938
     80 H25        11.0692   18.0407   45.7587 H           1 MOL       0.0671
     81 H26        10.2423   18.4319   42.8395 H           1 MOL       0.0648
     82 H27        12.8399   17.1682   43.8969 H           1 MOL       0.0651
     83 H28        10.4384   15.7648   42.6182 H           1 MOL       0.0647
     84 H29        12.0376   13.8446   43.9731 H           1 MOL       0.0584
     85 H30        13.1948   14.8401   43.0827 H           1 MOL       0.0584
     86 H31         9.0200   19.4411   44.4867 H           1 MOL       0.2101
     87 H32        11.1297   20.2240   43.2878 H           1 MOL       0.2100
     88 H33        12.2881   13.0625   41.9318 H           1 MOL       0.2095
     89 H34        13.5581   18.9835   42.1158 H           1 MOL       0.0938
     90 H35        14.0253   19.3604   39.7978 H           1 MOL       0.0671
     91 H36        12.5886   16.7299   39.1248 H           1 MOL       0.0648
     92 H37        15.5961   17.3102   39.0179 H           1 MOL       0.0647
     93 H38        14.0379   15.5161   40.9647 H           1 MOL       0.0647
     94 H39        16.0411   14.3953   40.9052 H           1 MOL       0.0584
     95 H40        16.3796   15.5775   42.1758 H           1 MOL       0.0584
     96 H41        11.8737   19.4549   38.9692 H           1 MOL       0.2101
     97 H42        12.5889   18.4397   37.5893 H           1 MOL       0.2100
     98 H43        14.9811   15.8581   37.5082 H           1 MOL       0.2100
     99 H44        17.5804   16.7491   40.7730 H           1 MOL       0.2095
    100 H45         4.0805   13.5518   43.7307 H           1 MOL       0.0877
    101 H46         5.6056   13.9087   45.5104 H           1 MOL       0.0677
    102 H47         3.5900   14.3970   46.0703 H           1 MOL       0.2102
    103 H48         5.8631   16.8605   44.7598 H           1 MOL       0.0647
    104 H49         7.3343   15.3196   46.5967 H           1 MOL       0.2100
    105 H50         8.0063   14.6758   44.4653 H           1 MOL       0.0627
    106 H51         6.4374   16.2113   42.3370 H           1 MOL       0.0351
    107 H52         5.5613   13.9292   41.7074 H           1 MOL       0.0325
    108 H53         6.4077   13.2411   43.0734 H           1 MOL       0.0325
    109 H54         7.5952   14.5160   40.7250 H           1 MOL       0.0561
    110 H55         8.8291   14.3845   41.9925 H           1 MOL       0.0561
    111 H56         9.3016   15.9627   40.4795 H           1 MOL       0.2094
@<TRIPOS>BOND
     1     2     1   1
     2     1     7   1
     3    11     1   1
     4     3     2   1
     5     2     8   1
     6     4     3   1
     7     3     9   1
     8     4     5   1
     9    10     4   1
    10     5     6   1
    11     5    11   1
    12     6    12   1
    13    13    10   1
    14    14    13   1
    15    22    13   1
    16    15    14   1
    17    14    19   1
    18    16    15   1
    19    15    20   1
    20    16    17   1
    21    21    16   1
    22    17    18   1
    23    17    22   1
    24    45    21   1
    25    23    24   1
    26    23    32   1
    27    51    23   1
    28    24    25   1
    29    24    29   1
    30    25    26   1
    31    25    30   1
    32    27    26   1
    33    26    31   1
    34    27    28   1
    35    32    27   1
    36    28    33   1
    37    31    34   1
    38    34    35   1
    39    34    43   1
    40    35    36   1
    41    35    40   1
    42    36    37   1
    43    36    41   1
    44    38    37   1
    45    37    42   1
    46    38    39   1
    47    43    38   1
    48    39    44   1
    49    46    45   1
    50    45    53   1
    51    46    47   1
    52    48    46   1
    53    48    49   1
    54    50    48   1
    55    50    51   1
    56    50    52   1
    57    52    53   1
    58    52    54   1
    59    54    55   1
    60     1    56   1
    61     2    57   1
    62     3    58   1
    63     4    59   1
    64     5    60   1
    65     6    61   1
    66     6    62   1
    67     7    63   1
    68     8    64   1
    69     9    65   1
    70    12    66   1
    71    13    67   1
    72    14    68   1
    73    15    69   1
    74    16    70   1
    75    17    71   1
    76    18    72   1
    77    18    73   1
    78    18    74   1
    79    19    75   1
    80    20    76   1
    81    21    77   1
    82    21    78   1
    83    23    79   1
    84    24    80   1
    85    25    81   1
    86    26    82   1
    87    27    83   1
    88    28    84   1
    89    28    85   1
    90    29    86   1
    91    30    87   1
    92    33    88   1
    93    34    89   1
    94    35    90   1
    95    36    91   1
    96    37    92   1
    97    38    93   1
    98    39    94   1
    99    39    95   1
   100    40    96   1
   101    41    97   1
   102    42    98   1
   103    44    99   1
   104    45   100   1
   105    46   101   1
   106    47   102   1
   107    48   103   1
   108    49   104   1
   109    50   105   1
   110    52   106   1
   111    53   107   1
   112    53   108   1
   113    54   109   1
   114    54   110   1
   115    55   111   1
@<TRIPOS>SUBSTRUCTURE
     1  MOL      1

