@<TRIPOS>MOLECULE
1xd0_ligand_023
   111   115
SMALL
GAST_HUCK
****
This file was generated by PARSER (from files_GN.cpp)

@<TRIPOS>ATOM
      1 CR1        15.4773   14.7650   40.2051 C.3         1 MOL       0.1854
      2 CR2        15.8907   16.2514   40.3345 C.3         1 MOL       0.1339
      3 CR3        14.9713   16.9788   41.3612 C.3         1 MOL       0.1144
      4 CR4        13.4628   16.8091   40.9995 C.3         1 MOL       0.1184
      5 CR5        13.1316   15.3034   40.7061 C.3         1 MOL       0.1134
      6 CR6        11.7568   15.1214   40.0127 C.3         1 MOL       0.0730
      7 OR1        15.7705   14.0127   41.3837 O.3         1 MOL      -0.3649
      8 OR2        17.2799   16.3139   40.6558 O.3         1 MOL      -0.3841
      9 OR3        15.3358   18.3594   41.4142 O.3         1 MOL      -0.3864
     10 OR4        12.6179   17.2275   42.1085 O.3         1 MOL      -0.3401
     11 OR5        14.0941   14.6678   39.8358 O.3         1 MOL      -0.3407
     12 OR6        11.0625   13.9811   40.5144 O.3         1 MOL      -0.3924
     13 CV1        12.0420   18.5550   42.1299 C.3         1 MOL       0.1886
     14 CV2        11.7512   18.9893   43.5919 C.3         1 MOL       0.1370
     15 CV3        10.6294   18.1217   44.2166 C.3         1 MOL       0.1304
     16 CV4         9.3369   18.0984   43.3394 C.3         1 MOL       0.0334
     17 CV5         9.6710   17.9072   41.8243 C.3         1 MOL       0.1038
     18 CV6         8.5075   18.2795   40.8757 C.3         1 MOL      -0.0332
     19 OV2        12.9466   18.9134   44.3745 O.3         1 MOL      -0.3840
     20 OV3        10.3144   18.6442   45.5089 O.3         1 MOL      -0.3834
     21 NV4         8.2365   17.2312   43.8809 N.4         1 MOL       0.2370
     22 OV5        10.8211   18.6546   41.3633 O.3         1 MOL      -0.3401
     23 CQ1         3.5795   14.1217   41.8281 C.3         1 MOL       0.1883
     24 CQ2         3.4894   13.9748   40.2838 C.3         1 MOL       0.1341
     25 CQ3         2.9690   15.2862   39.6423 C.3         1 MOL       0.1144
     26 CQ4         1.6013   15.7037   40.2532 C.3         1 MOL       0.1184
     27 CQ5         1.6937   15.7258   41.8161 C.3         1 MOL       0.1134
     28 CQ6         0.3000   15.8406   42.4901 C.3         1 MOL       0.0730
     29 OQ2         4.7476   13.6038   39.7344 O.3         1 MOL      -0.3841
     30 OQ3         2.8697   15.0846   38.2295 O.3         1 MOL      -0.3864
     31 OQ4         1.1889   17.0241   39.8255 O.3         1 MOL      -0.3401
     32 OQ5         2.2885   14.5160   42.3375 O.3         1 MOL      -0.3405
     33 OQ6        -0.5277   16.8593   41.9332 O.3         1 MOL      -0.3924
     34 CW1         0.6103   17.1825   38.5133 C.3         1 MOL       0.1884
     35 CW2         0.0693   18.6282   38.3770 C.3         1 MOL       0.1341
     36 CW3        -0.5994   18.8262   36.9869 C.3         1 MOL       0.1141
     37 CW4        -1.6452   17.7152   36.6696 C.3         1 MOL       0.1119
     38 CW5        -1.1583   16.2749   37.0474 C.3         1 MOL       0.1130
     39 CW6        -0.3906   15.5078   35.9356 C.3         1 MOL       0.0730
     40 OW2        -0.8567   18.9141   39.4236 O.3         1 MOL      -0.3841
     41 OW3         0.3917   18.8734   35.9624 O.3         1 MOL      -0.3864
     42 OW4        -2.8513   17.9934   37.3819 O.3         1 MOL      -0.3865
     43 OW5        -0.4704   16.2422   38.3159 O.3         1 MOL      -0.3405
     44 OW6         0.7574   16.1871   35.4447 O.3         1 MOL      -0.3924
     45 CY1         8.3479   15.7653   44.2019 C.3         1 MOL       0.0073
     46 CY2         8.3264   14.7463   43.0226 C.3         1 MOL       0.1257
     47 OY2         9.5125   14.8469   42.2294 O.3         1 MOL      -0.3835
     48 CY3         7.0392   14.8767   42.1745 C.3         1 MOL       0.1127
     49 OY3         7.1068   13.9863   41.0611 O.3         1 MOL      -0.3864
     50 CY4         5.7528   14.6167   43.0187 C.3         1 MOL       0.0953
     51 OY4         4.6040   15.0571   42.2374 O.3         1 MOL      -0.3424
     52 CY5         5.7593   15.3697   44.3965 C.3         1 MOL       0.0162
     53 CY6         7.1471   15.3660   45.1177 C.3         1 MOL       0.0002
     54 CY7         4.6930   14.7840   45.3831 C.3         1 MOL       0.0497
     55 OY7         3.4162   14.6075   44.7851 O.3         1 MOL      -0.3946
     56 H1         16.0566   14.3140   39.3956 H           1 MOL       0.0935
     57 H2         15.7684   16.7266   39.3574 H           1 MOL       0.0671
     58 H3         15.1488   16.5596   42.3563 H           1 MOL       0.0648
     59 H4         13.2434   17.3936   40.1015 H           1 MOL       0.0651
     60 H5         13.1153   14.7635   41.6577 H           1 MOL       0.0647
     61 H6         11.8724   15.0176   38.9315 H           1 MOL       0.0584
     62 H7         11.1136   15.9785   40.1823 H           1 MOL       0.0584
     63 H8         15.2962   14.4612   42.1140 H           1 MOL       0.2126
     64 H9         17.3277   16.4616   41.6261 H           1 MOL       0.2101
     65 H10        16.3104   18.3642   41.5473 H           1 MOL       0.2100
     66 H11        11.5852   13.2095   40.2140 H           1 MOL       0.2095
     67 H12        12.7427   19.2777   41.7090 H           1 MOL       0.0938
     68 H13        11.4310   20.0367   43.5860 H           1 MOL       0.0672
     69 H14        11.0118   17.1049   44.3324 H           1 MOL       0.0679
     70 H15         8.9263   19.1099   43.4121 H           1 MOL       0.0903
     71 H16         9.8940   16.8468   41.6646 H           1 MOL       0.0652
     72 H17         8.7407   17.9694   39.8565 H           1 MOL       0.0257
     73 H18         8.3472   19.3602   40.8775 H           1 MOL       0.0257
     74 H19         7.5718   17.7932   41.1685 H           1 MOL       0.0257
     75 H20        13.4157   19.7604   44.2137 H           1 MOL       0.2101
     76 H21        10.7880   18.0665   46.1380 H           1 MOL       0.2102
     77 H22         7.4287   17.3453   43.2712 H           1 MOL       0.2022
     78 H23         7.9895   17.6704   44.7718 H           1 MOL       0.2022
     79 H24         3.7627   13.1313   42.2417 H           1 MOL       0.0938
     80 H25         2.7825   13.1715   40.0618 H           1 MOL       0.0671
     81 H26         3.6980   16.0859   39.8064 H           1 MOL       0.0648
     82 H27         0.8562   14.9488   39.9815 H           1 MOL       0.0651
     83 H28         2.2984   16.5814   42.1299 H           1 MOL       0.0647
     84 H29         0.4298   16.0539   43.5532 H           1 MOL       0.0584
     85 H30        -0.2342   14.8932   42.4008 H           1 MOL       0.0584
     86 H31         4.5445   13.2320   38.8508 H           1 MOL       0.2101
     87 H32         2.1673   14.4095   38.1102 H           1 MOL       0.2100
     88 H33         0.0642   17.6224   41.7700 H           1 MOL       0.2095
     89 H34         1.3941   17.0359   37.7717 H           1 MOL       0.0938
     90 H35         0.9002   19.3312   38.4828 H           1 MOL       0.0671
     91 H36        -1.0985   19.7996   36.9739 H           1 MOL       0.0648
     92 H37        -1.8976   17.7467   35.6063 H           1 MOL       0.0647
     93 H38        -2.0591   15.6734   37.2145 H           1 MOL       0.0647
     94 H39        -1.0597   15.3239   35.0921 H           1 MOL       0.0584
     95 H40        -0.0698   14.5399   36.3292 H           1 MOL       0.0584
     96 H41        -1.5790   18.2570   39.3302 H           1 MOL       0.2101
     97 H42         0.9089   19.6897   36.1340 H           1 MOL       0.2100
     98 H43        -3.2243   18.7974   36.9614 H           1 MOL       0.2100
     99 H44         1.1379   15.5895   34.7675 H           1 MOL       0.2095
    100 H45         9.2491   15.6007   44.7922 H           1 MOL       0.0877
    101 H46         8.3580   13.7356   43.4345 H           1 MOL       0.0677
    102 H47         9.4172   14.1382   41.5442 H           1 MOL       0.2102
    103 H48         6.9902   15.8871   41.7535 H           1 MOL       0.0647
    104 H49         6.5751   13.1988   41.2998 H           1 MOL       0.2100
    105 H50         5.7266   13.5437   43.2283 H           1 MOL       0.0627
    106 H51         5.4943   16.4148   44.2072 H           1 MOL       0.0351
    107 H52         7.1105   16.0443   45.9731 H           1 MOL       0.0325
    108 H53         7.3410   14.3659   45.5193 H           1 MOL       0.0325
    109 H54         4.5689   15.4559   46.2386 H           1 MOL       0.0561
    110 H55         5.0231   13.8132   45.7569 H           1 MOL       0.0561
    111 H56         3.1926   15.4811   44.4090 H           1 MOL       0.2094
@<TRIPOS>BOND
     1     2     1   1
     2     1     7   1
     3    11     1   1
     4     3     2   1
     5     2     8   1
     6     4     3   1
     7     3     9   1
     8     4     5   1
     9    10     4   1
    10     5     6   1
    11     5    11   1
    12     6    12   1
    13    13    10   1
    14    14    13   1
    15    22    13   1
    16    15    14   1
    17    14    19   1
    18    16    15   1
    19    15    20   1
    20    16    17   1
    21    21    16   1
    22    17    18   1
    23    17    22   1
    24    45    21   1
    25    23    24   1
    26    23    32   1
    27    51    23   1
    28    24    25   1
    29    24    29   1
    30    25    26   1
    31    25    30   1
    32    27    26   1
    33    26    31   1
    34    27    28   1
    35    32    27   1
    36    28    33   1
    37    31    34   1
    38    34    35   1
    39    34    43   1
    40    35    36   1
    41    35    40   1
    42    36    37   1
    43    36    41   1
    44    38    37   1
    45    37    42   1
    46    38    39   1
    47    43    38   1
    48    39    44   1
    49    46    45   1
    50    45    53   1
    51    46    47   1
    52    48    46   1
    53    48    49   1
    54    50    48   1
    55    50    51   1
    56    50    52   1
    57    52    53   1
    58    52    54   1
    59    54    55   1
    60     1    56   1
    61     2    57   1
    62     3    58   1
    63     4    59   1
    64     5    60   1
    65     6    61   1
    66     6    62   1
    67     7    63   1
    68     8    64   1
    69     9    65   1
    70    12    66   1
    71    13    67   1
    72    14    68   1
    73    15    69   1
    74    16    70   1
    75    17    71   1
    76    18    72   1
    77    18    73   1
    78    18    74   1
    79    19    75   1
    80    20    76   1
    81    21    77   1
    82    21    78   1
    83    23    79   1
    84    24    80   1
    85    25    81   1
    86    26    82   1
    87    27    83   1
    88    28    84   1
    89    28    85   1
    90    29    86   1
    91    30    87   1
    92    33    88   1
    93    34    89   1
    94    35    90   1
    95    36    91   1
    96    37    92   1
    97    38    93   1
    98    39    94   1
    99    39    95   1
   100    40    96   1
   101    41    97   1
   102    42    98   1
   103    44    99   1
   104    45   100   1
   105    46   101   1
   106    47   102   1
   107    48   103   1
   108    49   104   1
   109    50   105   1
   110    52   106   1
   111    53   107   1
   112    53   108   1
   113    54   109   1
   114    54   110   1
   115    55   111   1
@<TRIPOS>SUBSTRUCTURE
     1  MOL      1

