@<TRIPOS>MOLECULE
1xd0_ligand_050
   111   115
SMALL
GAST_HUCK
****
This file was generated by PARSER (from files_GN.cpp)

@<TRIPOS>ATOM
      1 CR1         9.8082   15.2901   36.2448 C.3         1 MOL       0.1854
      2 CR2         9.5801   16.7361   36.7583 C.3         1 MOL       0.1339
      3 CR3         9.2556   16.7412   38.2772 C.3         1 MOL       0.1144
      4 CR4         8.0782   15.7818   38.6093 C.3         1 MOL       0.1184
      5 CR5         8.3614   14.3786   37.9843 C.3         1 MOL       0.1134
      6 CR6         7.1668   13.4052   38.1295 C.3         1 MOL       0.0730
      7 OR1        11.0216   14.7184   36.7411 O.3         1 MOL      -0.3649
      8 OR2        10.7074   17.5668   36.4800 O.3         1 MOL      -0.3841
      9 OR3         8.9398   18.0753   38.6680 O.3         1 MOL      -0.3864
     10 OR4         7.9724   15.6591   40.0419 O.3         1 MOL      -0.3401
     11 OR5         8.6685   14.4715   36.5758 O.3         1 MOL      -0.3407
     12 OR6         7.2856   12.6736   39.3427 O.3         1 MOL      -0.3924
     13 CV1         6.6796   15.6303   40.6932 C.3         1 MOL       0.1886
     14 CV2         6.1177   17.0320   41.0288 C.3         1 MOL       0.1370
     15 CV3         7.0940   17.7935   41.9611 C.3         1 MOL       0.1304
     16 CV4         7.5649   16.9821   43.2227 C.3         1 MOL       0.0334
     17 CV5         7.7437   15.4572   42.8833 C.3         1 MOL       0.1038
     18 CV6         7.6051   14.5738   44.1480 C.3         1 MOL      -0.0332
     19 OV2         5.8870   17.7535   39.8261 O.3         1 MOL      -0.3840
     20 OV3         6.4661   19.0121   42.3826 O.3         1 MOL      -0.3834
     21 NV4         8.7330   17.7195   43.8018 N.4         1 MOL       0.2370
     22 OV5         6.7835   14.9194   41.9384 O.3         1 MOL      -0.3401
     23 CQ1        13.8833   18.2789   41.0636 C.3         1 MOL       0.1883
     24 CQ2        13.9620   18.7091   39.5742 C.3         1 MOL       0.1341
     25 CQ3        14.1812   17.5059   38.6131 C.3         1 MOL       0.1144
     26 CQ4        15.3602   16.6075   39.0834 C.3         1 MOL       0.1184
     27 CQ5        15.1401   16.2166   40.5815 C.3         1 MOL       0.1134
     28 CQ6        16.2993   15.3946   41.2033 C.3         1 MOL       0.0730
     29 OQ2        12.7986   19.4457   39.2031 O.3         1 MOL      -0.3841
     30 OQ3        14.4502   17.9888   37.2997 O.3         1 MOL      -0.3864
     31 OQ4        15.3896   15.4159   38.2430 O.3         1 MOL      -0.3401
     32 OQ5        14.9674   17.3932   41.4109 O.3         1 MOL      -0.3405
     33 OQ6        17.1215   16.1878   42.0596 O.3         1 MOL      -0.3924
     34 CW1        16.5949   15.0702   37.5096 C.3         1 MOL       0.1884
     35 CW2        16.3914   15.1730   35.9734 C.3         1 MOL       0.1341
     36 CW3        15.4816   14.0297   35.4542 C.3         1 MOL       0.1141
     37 CW4        16.0329   12.6505   35.8981 C.3         1 MOL       0.1119
     38 CW5        16.2899   12.6109   37.4374 C.3         1 MOL       0.1130
     39 CW6        17.1086   11.3683   37.8747 C.3         1 MOL       0.0730
     40 OW2        15.8687   16.4525   35.6190 O.3         1 MOL      -0.3841
     41 OW3        15.4065   14.0640   34.0298 O.3         1 MOL      -0.3864
     42 OW4        15.1182   11.6264   35.5039 O.3         1 MOL      -0.3865
     43 OW5        17.0630   13.7550   37.8649 O.3         1 MOL      -0.3405
     44 OW6        16.9211   10.2343   37.0289 O.3         1 MOL      -0.3924
     45 CY1         9.8686   17.2250   44.6516 C.3         1 MOL       0.0073
     46 CY2        10.9061   18.3765   44.7959 C.3         1 MOL       0.1257
     47 OY2        10.2929   19.5638   45.3119 O.3         1 MOL      -0.3835
     48 CY3        11.6514   18.7035   43.4546 C.3         1 MOL       0.1127
     49 OY3        12.6686   19.6644   43.7151 O.3         1 MOL      -0.3864
     50 CY4        12.2628   17.4389   42.7596 C.3         1 MOL       0.0953
     51 OY4        12.5989   17.7031   41.3764 O.3         1 MOL      -0.3424
     52 CY5        11.2545   16.2476   42.7205 C.3         1 MOL       0.0162
     53 CY6        10.6683   15.9757   44.1501 C.3         1 MOL       0.0002
     54 CY7        11.8504   14.9423   42.1222 C.3         1 MOL       0.0497
     55 OY7        12.9287   14.4262   42.8958 O.3         1 MOL      -0.3946
     56 H1          9.8842   15.3140   35.1555 H           1 MOL       0.0935
     57 H2          8.7259   17.1495   36.2123 H           1 MOL       0.0671
     58 H3         10.1432   16.4286   38.8375 H           1 MOL       0.0648
     59 H4          7.1700   16.1979   38.1621 H           1 MOL       0.0651
     60 H5          9.2176   13.9330   38.5010 H           1 MOL       0.0647
     61 H6          7.1581   12.6884   37.3044 H           1 MOL       0.0584
     62 H7          6.2143   13.9421   38.1215 H           1 MOL       0.0584
     63 H8         11.7346   15.1177   36.1981 H           1 MOL       0.2126
     64 H9         11.3599   17.3468   37.1766 H           1 MOL       0.2101
     65 H10         9.3620   18.6443   37.9888 H           1 MOL       0.2100
     66 H11         8.0441   12.0672   39.1874 H           1 MOL       0.2095
     67 H12         5.9448   15.0863   40.1070 H           1 MOL       0.0938
     68 H13         5.1512   16.9314   41.5397 H           1 MOL       0.0672
     69 H14         7.9614   18.0712   41.3600 H           1 MOL       0.0679
     70 H15         6.7562   17.0492   43.9543 H           1 MOL       0.0903
     71 H16         8.7210   15.2912   42.4447 H           1 MOL       0.0652
     72 H17         7.9415   13.5513   43.9402 H           1 MOL       0.0257
     73 H18         6.5635   14.5434   44.4782 H           1 MOL       0.0257
     74 H19         8.2094   14.9777   44.9574 H           1 MOL       0.0257
     75 H20         5.0329   17.4274   39.4834 H           1 MOL       0.2101
     76 H21         7.1987   19.6198   42.6372 H           1 MOL       0.2102
     77 H22         8.2800   18.4405   44.3841 H           1 MOL       0.2022
     78 H23         9.1634   18.2161   43.0152 H           1 MOL       0.2022
     79 H24        14.0288   19.1895   41.6459 H           1 MOL       0.0938
     80 H25        14.8119   19.3872   39.4732 H           1 MOL       0.0671
     81 H26        13.2662   16.9053   38.5678 H           1 MOL       0.0648
     82 H27        16.2865   17.1942   39.0305 H           1 MOL       0.0651
     83 H28        14.2432   15.5934   40.6373 H           1 MOL       0.0647
     84 H29        16.9188   14.9437   40.4266 H           1 MOL       0.0584
     85 H30        15.8775   14.5815   41.8033 H           1 MOL       0.0584
     86 H31        12.2141   18.8051   38.7409 H           1 MOL       0.2101
     87 H32        13.5900   18.3303   36.9835 H           1 MOL       0.2100
     88 H33        17.5642   16.8379   41.4736 H           1 MOL       0.2095
     89 H34        17.4138   15.7461   37.7620 H           1 MOL       0.0938
     90 H35        17.3706   15.0799   35.4961 H           1 MOL       0.0671
     91 H36        14.4710   14.1651   35.8499 H           1 MOL       0.0648
     92 H37        16.9780   12.4694   35.3774 H           1 MOL       0.0647
     93 H38        15.3314   12.6020   37.9702 H           1 MOL       0.0647
     94 H39        16.8358   11.0867   38.8938 H           1 MOL       0.0584
     95 H40        18.1739   11.6071   37.8725 H           1 MOL       0.0584
     96 H41        14.9953   16.5042   36.0593 H           1 MOL       0.2101
     97 H42        14.8932   14.8696   33.8097 H           1 MOL       0.2100
     98 H43        14.6948   11.3134   36.3327 H           1 MOL       0.2100
     99 H44        16.0281    9.8846   37.2236 H           1 MOL       0.2095
    100 H45         9.4541   17.0087   45.6398 H           1 MOL       0.0877
    101 H46        11.6647   18.0813   45.5257 H           1 MOL       0.0677
    102 H47         9.8427   19.9747   44.5435 H           1 MOL       0.2102
    103 H48        10.9456   19.1498   42.7579 H           1 MOL       0.0647
    104 H49        12.2119   20.5231   43.8412 H           1 MOL       0.2100
    105 H50        13.1499   17.1234   43.3183 H           1 MOL       0.0627
    106 H51        10.4283   16.5254   42.0604 H           1 MOL       0.0351
    107 H52        10.0470   15.0747   44.1842 H           1 MOL       0.0325
    108 H53        11.5004   15.7871   44.8498 H           1 MOL       0.0325
    109 H54        12.2120   15.1423   41.1172 H           1 MOL       0.0561
    110 H55        11.0807   14.1749   42.0354 H           1 MOL       0.0561
    111 H56        12.5109   14.0250   43.6830 H           1 MOL       0.2094
@<TRIPOS>BOND
     1     2     1   1
     2     1     7   1
     3    11     1   1
     4     3     2   1
     5     2     8   1
     6     4     3   1
     7     3     9   1
     8     4     5   1
     9    10     4   1
    10     5     6   1
    11     5    11   1
    12     6    12   1
    13    13    10   1
    14    14    13   1
    15    22    13   1
    16    15    14   1
    17    14    19   1
    18    16    15   1
    19    15    20   1
    20    16    17   1
    21    21    16   1
    22    17    18   1
    23    17    22   1
    24    45    21   1
    25    23    24   1
    26    23    32   1
    27    51    23   1
    28    24    25   1
    29    24    29   1
    30    25    26   1
    31    25    30   1
    32    27    26   1
    33    26    31   1
    34    27    28   1
    35    32    27   1
    36    28    33   1
    37    31    34   1
    38    34    35   1
    39    34    43   1
    40    35    36   1
    41    35    40   1
    42    36    37   1
    43    36    41   1
    44    38    37   1
    45    37    42   1
    46    38    39   1
    47    43    38   1
    48    39    44   1
    49    46    45   1
    50    45    53   1
    51    46    47   1
    52    48    46   1
    53    48    49   1
    54    50    48   1
    55    50    51   1
    56    50    52   1
    57    52    53   1
    58    52    54   1
    59    54    55   1
    60     1    56   1
    61     2    57   1
    62     3    58   1
    63     4    59   1
    64     5    60   1
    65     6    61   1
    66     6    62   1
    67     7    63   1
    68     8    64   1
    69     9    65   1
    70    12    66   1
    71    13    67   1
    72    14    68   1
    73    15    69   1
    74    16    70   1
    75    17    71   1
    76    18    72   1
    77    18    73   1
    78    18    74   1
    79    19    75   1
    80    20    76   1
    81    21    77   1
    82    21    78   1
    83    23    79   1
    84    24    80   1
    85    25    81   1
    86    26    82   1
    87    27    83   1
    88    28    84   1
    89    28    85   1
    90    29    86   1
    91    30    87   1
    92    33    88   1
    93    34    89   1
    94    35    90   1
    95    36    91   1
    96    37    92   1
    97    38    93   1
    98    39    94   1
    99    39    95   1
   100    40    96   1
   101    41    97   1
   102    42    98   1
   103    44    99   1
   104    45   100   1
   105    46   101   1
   106    47   102   1
   107    48   103   1
   108    49   104   1
   109    50   105   1
   110    52   106   1
   111    53   107   1
   112    53   108   1
   113    54   109   1
   114    54   110   1
   115    55   111   1
@<TRIPOS>SUBSTRUCTURE
     1  MOL      1

