@<TRIPOS>MOLECULE
1xd0_ligand_058
   111   115
SMALL
GAST_HUCK
****
This file was generated by PARSER (from files_GN.cpp)

@<TRIPOS>ATOM
      1 CR1         0.7354   14.0835   40.4278 C.3         1 MOL       0.1854
      2 CR2         2.0316   14.5792   39.7356 C.3         1 MOL       0.1339
      3 CR3         2.4427   15.9990   40.2385 C.3         1 MOL       0.1144
      4 CR4         2.2691   16.2235   41.7819 C.3         1 MOL       0.1184
      5 CR5         0.9592   15.5847   42.3464 C.3         1 MOL       0.1134
      6 CR6        -0.3777   16.3961   42.2341 C.3         1 MOL       0.0730
      7 OR1         0.5429   12.6981   40.1488 O.3         1 MOL      -0.3649
      8 OR2         3.1049   13.6548   39.9334 O.3         1 MOL      -0.3841
      9 OR3         1.6854   16.9758   39.5283 O.3         1 MOL      -0.3864
     10 OR4         3.4447   15.9050   42.5672 O.3         1 MOL      -0.3401
     11 OR5         0.8126   14.2318   41.8599 O.3         1 MOL      -0.3407
     12 OR6        -0.2529   17.6409   41.5465 O.3         1 MOL      -0.3924
     13 CV1         3.8994   14.5506   42.8246 C.3         1 MOL       0.1886
     14 CV2         4.4644   14.4327   44.2653 C.3         1 MOL       0.1370
     15 CV3         5.8198   15.1849   44.4306 C.3         1 MOL       0.1304
     16 CV4         6.8526   14.8426   43.3124 C.3         1 MOL       0.0334
     17 CV5         6.1484   14.8700   41.9102 C.3         1 MOL       0.1038
     18 CV6         7.0139   14.2820   40.7730 C.3         1 MOL      -0.0332
     19 OV2         3.5062   14.9140   45.2149 O.3         1 MOL      -0.3840
     20 OV3         6.3542   14.8565   45.7129 O.3         1 MOL      -0.3834
     21 NV4         8.0127   15.7913   43.2385 N.4         1 MOL       0.2370
     22 OV5         4.9100   14.1286   41.8858 O.3         1 MOL      -0.3401
     23 CQ1        12.7032   16.7263   41.1500 C.3         1 MOL       0.1883
     24 CQ2        12.1728   15.4735   40.4035 C.3         1 MOL       0.1341
     25 CQ3        12.2147   15.7251   38.8711 C.3         1 MOL       0.1144
     26 CQ4        13.6351   16.1772   38.3896 C.3         1 MOL       0.1184
     27 CQ5        14.2155   17.3254   39.2860 C.3         1 MOL       0.1134
     28 CQ6        13.8295   18.7868   38.9122 C.3         1 MOL       0.0730
     29 OQ2        12.9568   14.3357   40.7554 O.3         1 MOL      -0.3841
     30 OQ3        11.2249   16.6935   38.5135 O.3         1 MOL      -0.3864
     31 OQ4        14.5795   15.0788   38.4652 O.3         1 MOL      -0.3401
     32 OQ5        14.0406   17.0400   40.6986 O.3         1 MOL      -0.3405
     33 OQ6        12.6037   19.2613   39.4543 O.3         1 MOL      -0.3924
     34 CW1        14.5634   14.0649   37.4360 C.3         1 MOL       0.1884
     35 CW2        15.4930   12.8896   37.8405 C.3         1 MOL       0.1341
     36 CW3        16.9868   13.2838   37.6987 C.3         1 MOL       0.1141
     37 CW4        17.2756   13.8584   36.2855 C.3         1 MOL       0.1119
     38 CW5        16.2957   15.0311   35.9852 C.3         1 MOL       0.1130
     39 CW6        16.4477   15.5687   34.5411 C.3         1 MOL       0.0730
     40 OW2        15.2053   12.4665   39.1749 O.3         1 MOL      -0.3841
     41 OW3        17.8292   12.1569   37.9454 O.3         1 MOL      -0.3864
     42 OW4        18.6257   14.3125   36.2126 O.3         1 MOL      -0.3865
     43 OW5        14.9263   14.5907   36.1407 O.3         1 MOL      -0.3405
     44 OW6        15.8678   16.8675   34.4195 O.3         1 MOL      -0.3924
     45 CY1         8.7678   16.3222   44.4171 C.3         1 MOL       0.0073
     46 CY2         9.3435   17.7199   44.0544 C.3         1 MOL       0.1257
     47 OY2         8.2874   18.5212   43.5237 O.3         1 MOL      -0.3835
     48 CY3        10.4914   17.6251   43.0116 C.3         1 MOL       0.1127
     49 OY3        11.0598   18.9191   42.8177 O.3         1 MOL      -0.3864
     50 CY4        11.6343   16.6669   43.4696 C.3         1 MOL       0.0953
     51 OY4        12.7881   16.5756   42.5845 O.3         1 MOL      -0.3424
     52 CY5        11.0976   15.2521   43.8860 C.3         1 MOL       0.0162
     53 CY6         9.9022   15.3720   44.9003 C.3         1 MOL       0.0002
     54 CY7        12.2359   14.3184   44.4147 C.3         1 MOL       0.0497
     55 OY7        13.3913   15.0158   44.9057 O.3         1 MOL      -0.3946
     56 H1         -0.1284   14.6167   40.0302 H           1 MOL       0.0935
     57 H2          1.8519   14.6210   38.6575 H           1 MOL       0.0671
     58 H3          3.4898   16.1738   39.9809 H           1 MOL       0.0648
     59 H4          2.1893   17.3023   41.9336 H           1 MOL       0.0651
     60 H5          1.1202   15.4762   43.4273 H           1 MOL       0.0647
     61 H6         -0.7709   16.6190   43.2360 H           1 MOL       0.0584
     62 H7         -1.1428   15.8078   41.7260 H           1 MOL       0.0584
     63 H8         -0.1311   12.4017   40.7986 H           1 MOL       0.2126
     64 H9          2.8557   12.8626   39.4087 H           1 MOL       0.2101
     65 H10         2.0507   16.9962   38.6216 H           1 MOL       0.2100
     66 H11        -1.1858   17.8976   41.3209 H           1 MOL       0.2095
     67 H12         3.0832   13.8379   42.7548 H           1 MOL       0.0938
     68 H13         4.6235   13.3690   44.4839 H           1 MOL       0.0672
     69 H14         5.6194   16.2635   44.4156 H           1 MOL       0.0679
     70 H15         7.2441   13.8446   43.4954 H           1 MOL       0.0903
     71 H16         5.9243   15.9074   41.6446 H           1 MOL       0.0652
     72 H17         6.4739   14.3459   39.8268 H           1 MOL       0.0257
     73 H18         7.2447   13.2354   40.9664 H           1 MOL       0.0257
     74 H19         7.9486   14.8338   40.6623 H           1 MOL       0.0257
     75 H20         3.2789   15.8182   44.9066 H           1 MOL       0.2101
     76 H21         6.5002   13.8832   45.6689 H           1 MOL       0.2102
     77 H22         7.6511   16.6169   42.7492 H           1 MOL       0.2022
     78 H23         8.7029   15.3621   42.6161 H           1 MOL       0.2022
     79 H24        12.0667   17.5809   40.9255 H           1 MOL       0.0938
     80 H25        11.1393   15.2811   40.6908 H           1 MOL       0.0671
     81 H26        11.9182   14.8020   38.3632 H           1 MOL       0.0648
     82 H27        13.5742   16.5385   37.3546 H           1 MOL       0.0651
     83 H28        15.2998   17.3030   39.1416 H           1 MOL       0.0647
     84 H29        13.8052   18.9027   37.8251 H           1 MOL       0.0584
     85 H30        14.6018   19.4472   39.3011 H           1 MOL       0.0584
     86 H31        12.5600   13.5762   40.2821 H           1 MOL       0.2101
     87 H32        11.2427   16.7278   37.5294 H           1 MOL       0.2100
     88 H33        11.9829   19.3647   38.6971 H           1 MOL       0.2095
     89 H34        13.5582   13.6538   37.3402 H           1 MOL       0.0938
     90 H35        15.2896   12.0434   37.1783 H           1 MOL       0.0671
     91 H36        17.2229   14.0466   38.4444 H           1 MOL       0.0648
     92 H37        17.1355   13.0736   35.5385 H           1 MOL       0.0647
     93 H38        16.5009   15.8582   36.6754 H           1 MOL       0.0647
     94 H39        15.9596   14.8949   33.8323 H           1 MOL       0.0584
     95 H40        17.5022   15.6478   34.2696 H           1 MOL       0.0584
     96 H41        15.7204   13.0644   39.7562 H           1 MOL       0.2101
     97 H42        17.9173   12.1097   38.9241 H           1 MOL       0.2100
     98 H43        19.1547   13.5132   36.0008 H           1 MOL       0.2100
     99 H44        14.8998   16.7252   34.5011 H           1 MOL       0.2095
    100 H45         8.0766   16.4756   45.2496 H           1 MOL       0.0877
    101 H46         9.7255   18.2011   44.9584 H           1 MOL       0.0677
    102 H47         7.8937   18.9740   44.2969 H           1 MOL       0.2102
    103 H48        10.0713   17.2703   42.0644 H           1 MOL       0.0647
    104 H49        10.3037   19.4890   42.5885 H           1 MOL       0.2100
    105 H50        12.0420   17.1123   44.3834 H           1 MOL       0.0627
    106 H51        10.6951   14.7708   42.9823 H           1 MOL       0.0351
    107 H52         9.4904   14.3748   45.0803 H           1 MOL       0.0325
    108 H53        10.3022   15.7374   45.8515 H           1 MOL       0.0325
    109 H54        12.5802   13.6624   43.5974 H           1 MOL       0.0561
    110 H55        11.8643   13.6630   45.2197 H           1 MOL       0.0561
    111 H56        13.1272   15.3590   45.7861 H           1 MOL       0.2094
@<TRIPOS>BOND
     1     2     1   1
     2     1     7   1
     3    11     1   1
     4     3     2   1
     5     2     8   1
     6     4     3   1
     7     3     9   1
     8     4     5   1
     9    10     4   1
    10     5     6   1
    11     5    11   1
    12     6    12   1
    13    13    10   1
    14    14    13   1
    15    22    13   1
    16    15    14   1
    17    14    19   1
    18    16    15   1
    19    15    20   1
    20    16    17   1
    21    21    16   1
    22    17    18   1
    23    17    22   1
    24    45    21   1
    25    23    24   1
    26    23    32   1
    27    51    23   1
    28    24    25   1
    29    24    29   1
    30    25    26   1
    31    25    30   1
    32    27    26   1
    33    26    31   1
    34    27    28   1
    35    32    27   1
    36    28    33   1
    37    31    34   1
    38    34    35   1
    39    34    43   1
    40    35    36   1
    41    35    40   1
    42    36    37   1
    43    36    41   1
    44    38    37   1
    45    37    42   1
    46    38    39   1
    47    43    38   1
    48    39    44   1
    49    46    45   1
    50    45    53   1
    51    46    47   1
    52    48    46   1
    53    48    49   1
    54    50    48   1
    55    50    51   1
    56    50    52   1
    57    52    53   1
    58    52    54   1
    59    54    55   1
    60     1    56   1
    61     2    57   1
    62     3    58   1
    63     4    59   1
    64     5    60   1
    65     6    61   1
    66     6    62   1
    67     7    63   1
    68     8    64   1
    69     9    65   1
    70    12    66   1
    71    13    67   1
    72    14    68   1
    73    15    69   1
    74    16    70   1
    75    17    71   1
    76    18    72   1
    77    18    73   1
    78    18    74   1
    79    19    75   1
    80    20    76   1
    81    21    77   1
    82    21    78   1
    83    23    79   1
    84    24    80   1
    85    25    81   1
    86    26    82   1
    87    27    83   1
    88    28    84   1
    89    28    85   1
    90    29    86   1
    91    30    87   1
    92    33    88   1
    93    34    89   1
    94    35    90   1
    95    36    91   1
    96    37    92   1
    97    38    93   1
    98    39    94   1
    99    39    95   1
   100    40    96   1
   101    41    97   1
   102    42    98   1
   103    44    99   1
   104    45   100   1
   105    46   101   1
   106    47   102   1
   107    48   103   1
   108    49   104   1
   109    50   105   1
   110    52   106   1
   111    53   107   1
   112    53   108   1
   113    54   109   1
   114    54   110   1
   115    55   111   1
@<TRIPOS>SUBSTRUCTURE
     1  MOL      1

