@<TRIPOS>MOLECULE
1xd0_ligand_035
   111   115
SMALL
GAST_HUCK
****
This file was generated by PARSER (from files_GN.cpp)

@<TRIPOS>ATOM
      1 CR1        15.5250   14.8653   39.1303 C.3         1 MOL       0.1854
      2 CR2        15.9622   16.1561   39.8642 C.3         1 MOL       0.1339
      3 CR3        15.1308   16.3956   41.1616 C.3         1 MOL       0.1144
      4 CR4        13.5903   16.2521   40.9220 C.3         1 MOL       0.1184
      5 CR5        13.3017   14.9388   40.1236 C.3         1 MOL       0.1134
      6 CR6        11.8169   14.7855   39.6865 C.3         1 MOL       0.0730
      7 OR1        15.9449   13.6871   39.8273 O.3         1 MOL      -0.3649
      8 OR2        17.3541   16.0536   40.1564 O.3         1 MOL      -0.3841
      9 OR3        15.4366   17.7020   41.6526 O.3         1 MOL      -0.3864
     10 OR4        12.8586   16.2090   42.1769 O.3         1 MOL      -0.3401
     11 OR5        14.1007   14.8799   38.9209 O.3         1 MOL      -0.3407
     12 OR6        11.1302   13.8653   40.5267 O.3         1 MOL      -0.3924
     13 CV1        12.3952   17.4612   42.7416 C.3         1 MOL       0.1886
     14 CV2        12.0921   17.3420   44.2642 C.3         1 MOL       0.1370
     15 CV3        10.7575   16.6017   44.5304 C.3         1 MOL       0.1304
     16 CV4         9.5937   17.2357   43.7027 C.3         1 MOL       0.0334
     17 CV5         9.9909   17.2962   42.1894 C.3         1 MOL       0.1038
     18 CV6         8.9734   18.0485   41.2916 C.3         1 MOL      -0.0332
     19 OV2        13.1744   16.6937   44.9335 O.3         1 MOL      -0.3840
     20 OV3        10.4620   16.6378   45.9260 O.3         1 MOL      -0.3834
     21 NV4         8.2227   16.7157   44.0033 N.4         1 MOL       0.2370
     22 OV5        11.2562   17.9819   42.0250 O.3         1 MOL      -0.3401
     23 CQ1         4.7950   15.7063   40.1597 C.3         1 MOL       0.1883
     24 CQ2         3.5419   16.5038   39.6767 C.3         1 MOL       0.1341
     25 CQ3         3.3711   16.3435   38.1364 C.3         1 MOL       0.1144
     26 CQ4         3.2523   14.8437   37.7409 C.3         1 MOL       0.1184
     27 CQ5         4.2791   13.9551   38.5297 C.3         1 MOL       0.1134
     28 CQ6         5.0025   12.9042   37.6467 C.3         1 MOL       0.0730
     29 OQ2         2.3500   16.1075   40.3643 O.3         1 MOL      -0.3841
     30 OQ3         4.4819   16.9347   37.4505 O.3         1 MOL      -0.3864
     31 OQ4         1.8952   14.4989   38.0614 O.3         1 MOL      -0.3401
     32 OQ5         5.2914   14.7669   39.1783 O.3         1 MOL      -0.3405
     33 OQ6         6.0289   13.4796   36.8368 O.3         1 MOL      -0.3924
     34 CW1         1.1686   13.3608   37.5530 C.3         1 MOL       0.1884
     35 CW2         0.9769   13.3017   36.0067 C.3         1 MOL       0.1341
     36 CW3         0.2484   14.5843   35.5201 C.3         1 MOL       0.1141
     37 CW4        -1.0900   14.7916   36.2836 C.3         1 MOL       0.1119
     38 CW5        -0.9043   14.6366   37.8298 C.3         1 MOL       0.1130
     39 CW6        -2.2556   14.5826   38.5820 C.3         1 MOL       0.0730
     40 OW2         2.2100   13.1082   35.3136 O.3         1 MOL      -0.3841
     41 OW3        -0.0240   14.5033   34.1189 O.3         1 MOL      -0.3864
     42 OW4        -1.5986   16.0867   35.9603 O.3         1 MOL      -0.3865
     43 OW5        -0.1435   13.4380   38.1541 O.3         1 MOL      -0.3405
     44 OW6        -2.1027   15.0462   39.9231 O.3         1 MOL      -0.3924
     45 CY1         7.8859   15.2756   44.2293 C.3         1 MOL       0.0073
     46 CY2         8.0287   14.3161   43.0080 C.3         1 MOL       0.1257
     47 OY2         9.3610   14.3293   42.5208 O.3         1 MOL      -0.3835
     48 CY3         7.0367   14.6581   41.8672 C.3         1 MOL       0.1127
     49 OY3         7.1870   13.7374   40.7862 O.3         1 MOL      -0.3864
     50 CY4         5.5520   14.6524   42.3584 C.3         1 MOL       0.0953
     51 OY4         4.5323   14.9791   41.3827 O.3         1 MOL      -0.3424
     52 CY5         5.3619   15.5382   43.6322 C.3         1 MOL       0.0162
     53 CY6         6.4154   15.1949   44.7383 C.3         1 MOL       0.0002
     54 CY7         3.9157   15.4366   44.2006 C.3         1 MOL       0.0497
     55 OY7         3.3729   14.1155   44.1764 O.3         1 MOL      -0.3946
     56 H1         16.0005   14.8479   38.1457 H           1 MOL       0.0935
     57 H2         15.8154   17.0036   39.1855 H           1 MOL       0.0671
     58 H3         15.4353   15.6651   41.9181 H           1 MOL       0.0648
     59 H4         13.2548   17.0943   40.3103 H           1 MOL       0.0651
     60 H5         13.5591   14.0792   40.7532 H           1 MOL       0.0647
     61 H6         11.7561   14.3993   38.6633 H           1 MOL       0.0584
     62 H7         11.3008   15.7493   39.7110 H           1 MOL       0.0584
     63 H8         15.8019   12.9554   39.1916 H           1 MOL       0.2126
     64 H9         17.5856   16.8519   40.6675 H           1 MOL       0.2101
     65 H10        16.4079   17.8101   41.5669 H           1 MOL       0.2100
     66 H11        11.5244   12.9988   40.2964 H           1 MOL       0.2095
     67 H12        13.1760   18.2157   42.6532 H           1 MOL       0.0938
     68 H13        12.0132   18.3546   44.6754 H           1 MOL       0.0672
     69 H14        10.8825   15.5536   44.2581 H           1 MOL       0.0679
     70 H15         9.5375   18.2817   44.0245 H           1 MOL       0.0903
     71 H16        10.0922   16.2921   41.7826 H           1 MOL       0.0652
     72 H17         9.3376   18.0801   40.2610 H           1 MOL       0.0257
     73 H18         8.8379   19.0712   41.6435 H           1 MOL       0.0257
     74 H19         8.0021   17.5522   41.2887 H           1 MOL       0.0257
     75 H20        12.9192   16.6843   45.8828 H           1 MOL       0.2101
     76 H21        10.3409   17.5866   46.1385 H           1 MOL       0.2102
     77 H22         7.6001   17.0527   43.2724 H           1 MOL       0.2022
     78 H23         7.9438   17.1963   44.8662 H           1 MOL       0.2022
     79 H24         5.5769   16.4522   40.3039 H           1 MOL       0.0938
     80 H25         3.6750   17.5669   39.9049 H           1 MOL       0.0671
     81 H26         2.4747   16.8898   37.8138 H           1 MOL       0.0648
     82 H27         3.4093   14.7890   36.6598 H           1 MOL       0.0651
     83 H28         3.7476   13.3870   39.3048 H           1 MOL       0.0647
     84 H29         4.2885   12.3924   36.9964 H           1 MOL       0.0584
     85 H30         5.4706   12.1531   38.2920 H           1 MOL       0.0584
     86 H31         2.2824   15.1378   40.2350 H           1 MOL       0.2101
     87 H32         4.4575   17.8855   37.6871 H           1 MOL       0.2100
     88 H33         5.5621   14.0169   36.1636 H           1 MOL       0.2095
     89 H34         1.6442   12.4389   37.8944 H           1 MOL       0.0938
     90 H35         0.3435   12.4352   35.7717 H           1 MOL       0.0671
     91 H36         0.9038   15.4489   35.6858 H           1 MOL       0.0648
     92 H37        -1.8055   14.0408   35.9327 H           1 MOL       0.0647
     93 H38        -0.3696   15.5207   38.2016 H           1 MOL       0.0647
     94 H39        -2.6550   13.5643   38.5964 H           1 MOL       0.0584
     95 H40        -2.9869   15.2370   38.0999 H           1 MOL       0.0584
     96 H41         2.4547   12.1775   35.4988 H           1 MOL       0.2101
     97 H42         0.8617   14.4882   33.6853 H           1 MOL       0.2100
     98 H43        -2.5565   16.0491   36.1654 H           1 MOL       0.2100
     99 H44        -1.7209   14.2938   40.4187 H           1 MOL       0.2095
    100 H45         8.5153   14.8868   45.0329 H           1 MOL       0.0877
    101 H46         7.8291   13.2914   43.3397 H           1 MOL       0.0677
    102 H47         9.2914   14.2050   41.5522 H           1 MOL       0.2102
    103 H48         7.3143   15.6448   41.5021 H           1 MOL       0.0647
    104 H49         6.6289   12.9688   41.0216 H           1 MOL       0.2100
    105 H50         5.3301   13.6209   42.6531 H           1 MOL       0.0627
    106 H51         5.5191   16.5803   43.3348 H           1 MOL       0.0351
    107 H52         6.2955   15.8782   45.5839 H           1 MOL       0.0325
    108 H53         6.2274   14.1838   45.1120 H           1 MOL       0.0325
    109 H54         3.2479   16.0724   43.6123 H           1 MOL       0.0561
    110 H55         3.8903   15.7956   45.2323 H           1 MOL       0.0561
    111 H56         4.0956   13.5251   44.4850 H           1 MOL       0.2094
@<TRIPOS>BOND
     1     2     1   1
     2     1     7   1
     3    11     1   1
     4     3     2   1
     5     2     8   1
     6     4     3   1
     7     3     9   1
     8     4     5   1
     9    10     4   1
    10     5     6   1
    11     5    11   1
    12     6    12   1
    13    13    10   1
    14    14    13   1
    15    22    13   1
    16    15    14   1
    17    14    19   1
    18    16    15   1
    19    15    20   1
    20    16    17   1
    21    21    16   1
    22    17    18   1
    23    17    22   1
    24    45    21   1
    25    23    24   1
    26    23    32   1
    27    51    23   1
    28    24    25   1
    29    24    29   1
    30    25    26   1
    31    25    30   1
    32    27    26   1
    33    26    31   1
    34    27    28   1
    35    32    27   1
    36    28    33   1
    37    31    34   1
    38    34    35   1
    39    34    43   1
    40    35    36   1
    41    35    40   1
    42    36    37   1
    43    36    41   1
    44    38    37   1
    45    37    42   1
    46    38    39   1
    47    43    38   1
    48    39    44   1
    49    46    45   1
    50    45    53   1
    51    46    47   1
    52    48    46   1
    53    48    49   1
    54    50    48   1
    55    50    51   1
    56    50    52   1
    57    52    53   1
    58    52    54   1
    59    54    55   1
    60     1    56   1
    61     2    57   1
    62     3    58   1
    63     4    59   1
    64     5    60   1
    65     6    61   1
    66     6    62   1
    67     7    63   1
    68     8    64   1
    69     9    65   1
    70    12    66   1
    71    13    67   1
    72    14    68   1
    73    15    69   1
    74    16    70   1
    75    17    71   1
    76    18    72   1
    77    18    73   1
    78    18    74   1
    79    19    75   1
    80    20    76   1
    81    21    77   1
    82    21    78   1
    83    23    79   1
    84    24    80   1
    85    25    81   1
    86    26    82   1
    87    27    83   1
    88    28    84   1
    89    28    85   1
    90    29    86   1
    91    30    87   1
    92    33    88   1
    93    34    89   1
    94    35    90   1
    95    36    91   1
    96    37    92   1
    97    38    93   1
    98    39    94   1
    99    39    95   1
   100    40    96   1
   101    41    97   1
   102    42    98   1
   103    44    99   1
   104    45   100   1
   105    46   101   1
   106    47   102   1
   107    48   103   1
   108    49   104   1
   109    50   105   1
   110    52   106   1
   111    53   107   1
   112    53   108   1
   113    54   109   1
   114    54   110   1
   115    55   111   1
@<TRIPOS>SUBSTRUCTURE
     1  MOL      1

