@<TRIPOS>MOLECULE
1xd0_ligand_005
   111   115
SMALL
GAST_HUCK
****
This file was generated by PARSER (from files_GN.cpp)

@<TRIPOS>ATOM
      1 CR1         0.8526   16.1382   40.2975 C.3         1 MOL       0.1854
      2 CR2         1.1799   15.2936   41.5629 C.3         1 MOL       0.1339
      3 CR3         2.4800   15.8170   42.2291 C.3         1 MOL       0.1144
      4 CR4         3.6454   15.8340   41.2011 C.3         1 MOL       0.1184
      5 CR5         3.2214   16.7246   39.9890 C.3         1 MOL       0.1134
      6 CR6         4.2725   16.8053   38.8559 C.3         1 MOL       0.0730
      7 OR1         0.3976   17.4480   40.6412 O.3         1 MOL      -0.3649
      8 OR2         0.0946   15.3106   42.4864 O.3         1 MOL      -0.3841
      9 OR3         2.8025   14.9911   43.3472 O.3         1 MOL      -0.3864
     10 OR4         4.8461   16.3266   41.8542 O.3         1 MOL      -0.3401
     11 OR5         1.9879   16.2242   39.4121 O.3         1 MOL      -0.3407
     12 OR6         4.8544   15.5372   38.5642 O.3         1 MOL      -0.3924
     13 CV1         6.0655   15.5608   41.7285 C.3         1 MOL       0.1886
     14 CV2         6.5245   15.0016   43.0991 C.3         1 MOL       0.1370
     15 CV3         7.0988   16.1259   44.0119 C.3         1 MOL       0.1304
     16 CV4         8.2390   16.8782   43.2527 C.3         1 MOL       0.0334
     17 CV5         7.6506   17.4335   41.9118 C.3         1 MOL       0.1038
     18 CV6         8.7140   18.0954   40.9934 C.3         1 MOL      -0.0332
     19 OV2         5.4375   14.3358   43.7328 O.3         1 MOL      -0.3840
     20 OV3         7.5577   15.5448   45.2381 O.3         1 MOL      -0.3834
     21 NV4         8.8555   17.9556   44.0798 N.4         1 MOL       0.2370
     22 OV5         7.0940   16.3585   41.1303 O.3         1 MOL      -0.3401
     23 CQ1        13.7704   17.4271   40.8013 C.3         1 MOL       0.1883
     24 CQ2        13.2298   18.2856   39.6050 C.3         1 MOL       0.1341
     25 CQ3        13.3554   17.5643   38.2194 C.3         1 MOL       0.1144
     26 CQ4        13.1445   16.0147   38.2537 C.3         1 MOL       0.1184
     27 CQ5        13.8053   15.3426   39.5136 C.3         1 MOL       0.1134
     28 CQ6        14.7771   14.1892   39.1709 C.3         1 MOL       0.0730
     29 OQ2        11.8917   18.7231   39.8319 O.3         1 MOL      -0.3841
     30 OQ3        14.6720   17.8530   37.7239 O.3         1 MOL      -0.3864
     31 OQ4        11.8011   15.5222   38.0197 O.3         1 MOL      -0.3401
     32 OQ5        14.5324   16.2957   40.3351 O.3         1 MOL      -0.3405
     33 OQ6        16.1090   14.6553   38.9511 O.3         1 MOL      -0.3924
     34 CW1        10.6712   15.9942   38.7948 C.3         1 MOL       0.1884
     35 CW2         9.6657   14.8490   39.0786 C.3         1 MOL       0.1341
     36 CW3         8.9150   14.4158   37.7853 C.3         1 MOL       0.1141
     37 CW4         8.2717   15.6474   37.1001 C.3         1 MOL       0.1119
     38 CW5         9.3338   16.7650   36.8811 C.3         1 MOL       0.1130
     39 CW6         8.7305   18.0711   36.3055 C.3         1 MOL       0.0730
     40 OW2        10.3099   13.7222   39.6871 O.3         1 MOL      -0.3841
     41 OW3         7.9175   13.4553   38.1251 O.3         1 MOL      -0.3864
     42 OW4         7.6896   15.2532   35.8602 O.3         1 MOL      -0.3865
     43 OW5         9.9979   17.0829   38.1263 O.3         1 MOL      -0.3405
     44 OW6         7.7744   18.6625   37.1862 O.3         1 MOL      -0.3924
     45 CY1        10.1321   17.8212   44.8625 C.3         1 MOL       0.0073
     46 CY2        11.1364   18.9471   44.4853 C.3         1 MOL       0.1257
     47 OY2        10.4942   20.2216   44.5770 O.3         1 MOL      -0.3835
     48 CY3        11.7377   18.6739   43.0664 C.3         1 MOL       0.1127
     49 OY3        12.6263   19.7431   42.7030 O.3         1 MOL      -0.3864
     50 CY4        12.5175   17.3236   43.0039 C.3         1 MOL       0.0953
     51 OY4        12.7002   16.9291   41.6270 O.3         1 MOL      -0.3424
     52 CY5        11.7901   16.1006   43.6805 C.3         1 MOL       0.0162
     53 CY6        10.9288   16.4756   44.9370 C.3         1 MOL       0.0002
     54 CY7        12.8028   14.9555   43.9844 C.3         1 MOL       0.0497
     55 OY7        12.5222   14.2456   45.2042 O.3         1 MOL      -0.3946
     56 H1          0.0482   15.6452   39.7492 H           1 MOL       0.0935
     57 H2          1.3388   14.2548   41.2586 H           1 MOL       0.0671
     58 H3          2.3094   16.8299   42.6084 H           1 MOL       0.0648
     59 H4          3.7671   14.8004   40.8533 H           1 MOL       0.0651
     60 H5          3.0578   17.7485   40.3415 H           1 MOL       0.0647
     61 H6          5.0657   17.5041   39.1252 H           1 MOL       0.0584
     62 H7          3.7972   17.1857   37.9475 H           1 MOL       0.0584
     63 H8         -0.4058   17.3112   41.1871 H           1 MOL       0.2126
     64 H9         -0.4160   14.4939   42.2936 H           1 MOL       0.2101
     65 H10         3.5513   15.4428   43.7933 H           1 MOL       0.2100
     66 H11         4.1253   14.9999   38.1856 H           1 MOL       0.2095
     67 H12         5.9504   14.7079   41.0579 H           1 MOL       0.0938
     68 H13         7.3123   14.2559   42.9296 H           1 MOL       0.0672
     69 H14         6.2946   16.8325   44.2649 H           1 MOL       0.0679
     70 H15         8.9986   16.1544   42.9782 H           1 MOL       0.0903
     71 H16         6.8751   18.1800   42.1325 H           1 MOL       0.0652
     72 H17         8.2470   18.3507   40.0312 H           1 MOL       0.0257
     73 H18         9.5492   17.4053   40.8048 H           1 MOL       0.0257
     74 H19         9.1184   19.0137   41.4451 H           1 MOL       0.0257
     75 H20         5.8390   13.6006   44.2467 H           1 MOL       0.2101
     76 H21         7.7315   16.3077   45.8331 H           1 MOL       0.2102
     77 H22         8.1373   18.2436   44.7460 H           1 MOL       0.2022
     78 H23         8.9895   18.7609   43.4687 H           1 MOL       0.2022
     79 H24        14.4605   18.0430   41.3849 H           1 MOL       0.0938
     80 H25        13.8196   19.2102   39.5579 H           1 MOL       0.0671
     81 H26        12.6505   18.0122   37.5074 H           1 MOL       0.0648
     82 H27        13.6679   15.6437   37.3686 H           1 MOL       0.0651
     83 H28        13.0140   14.8916   40.1191 H           1 MOL       0.0647
     84 H29        14.4339   13.6557   38.2797 H           1 MOL       0.0584
     85 H30        14.8064   13.4773   40.0018 H           1 MOL       0.0584
     86 H31        11.6517   19.2419   39.0336 H           1 MOL       0.2101
     87 H32        14.5364   18.4652   36.9684 H           1 MOL       0.2100
     88 H33        16.0576   15.2058   38.1402 H           1 MOL       0.2095
     89 H34        11.0055   16.3597   39.7681 H           1 MOL       0.0938
     90 H35         8.9239   15.2161   39.8004 H           1 MOL       0.0671
     91 H36         9.6256   13.9517   37.0958 H           1 MOL       0.0648
     92 H37         7.4720   16.0266   37.7413 H           1 MOL       0.0647
     93 H38        10.0793   16.4119   36.1588 H           1 MOL       0.0647
     94 H39         8.2487   17.8837   35.3403 H           1 MOL       0.0584
     95 H40         9.5277   18.7960   36.1393 H           1 MOL       0.0584
     96 H41        10.9214   14.1084   40.3541 H           1 MOL       0.2101
     97 H42         7.6931   13.0019   37.2830 H           1 MOL       0.2100
     98 H43         8.4371   14.9380   35.3088 H           1 MOL       0.2100
     99 H44         6.9052   18.4992   36.7639 H           1 MOL       0.2095
    100 H45         9.8309   18.0195   45.8951 H           1 MOL       0.0877
    101 H46        11.9603   18.9554   45.2101 H           1 MOL       0.0677
    102 H47        11.2067   20.8701   44.3993 H           1 MOL       0.2102
    103 H48        10.9127   18.6596   42.3439 H           1 MOL       0.0647
    104 H49        12.0329   20.4589   42.3781 H           1 MOL       0.2100
    105 H50        13.4858   17.4759   43.5049 H           1 MOL       0.0627
    106 H51        11.1016   15.6805   42.9406 H           1 MOL       0.0351
    107 H52        10.2423   15.6524   45.1449 H           1 MOL       0.0325
    108 H53        11.6153   16.5410   45.7862 H           1 MOL       0.0325
    109 H54        13.8369   15.3330   44.0461 H           1 MOL       0.0561
    110 H55        12.7685   14.2095   43.1736 H           1 MOL       0.0561
    111 H56        12.7932   14.8559   45.9205 H           1 MOL       0.2094
@<TRIPOS>BOND
     1     2     1   1
     2     1     7   1
     3    11     1   1
     4     3     2   1
     5     2     8   1
     6     4     3   1
     7     3     9   1
     8     4     5   1
     9    10     4   1
    10     5     6   1
    11     5    11   1
    12     6    12   1
    13    13    10   1
    14    14    13   1
    15    22    13   1
    16    15    14   1
    17    14    19   1
    18    16    15   1
    19    15    20   1
    20    16    17   1
    21    21    16   1
    22    17    18   1
    23    17    22   1
    24    45    21   1
    25    23    24   1
    26    23    32   1
    27    51    23   1
    28    24    25   1
    29    24    29   1
    30    25    26   1
    31    25    30   1
    32    27    26   1
    33    26    31   1
    34    27    28   1
    35    32    27   1
    36    28    33   1
    37    31    34   1
    38    34    35   1
    39    34    43   1
    40    35    36   1
    41    35    40   1
    42    36    37   1
    43    36    41   1
    44    38    37   1
    45    37    42   1
    46    38    39   1
    47    43    38   1
    48    39    44   1
    49    46    45   1
    50    45    53   1
    51    46    47   1
    52    48    46   1
    53    48    49   1
    54    50    48   1
    55    50    51   1
    56    50    52   1
    57    52    53   1
    58    52    54   1
    59    54    55   1
    60     1    56   1
    61     2    57   1
    62     3    58   1
    63     4    59   1
    64     5    60   1
    65     6    61   1
    66     6    62   1
    67     7    63   1
    68     8    64   1
    69     9    65   1
    70    12    66   1
    71    13    67   1
    72    14    68   1
    73    15    69   1
    74    16    70   1
    75    17    71   1
    76    18    72   1
    77    18    73   1
    78    18    74   1
    79    19    75   1
    80    20    76   1
    81    21    77   1
    82    21    78   1
    83    23    79   1
    84    24    80   1
    85    25    81   1
    86    26    82   1
    87    27    83   1
    88    28    84   1
    89    28    85   1
    90    29    86   1
    91    30    87   1
    92    33    88   1
    93    34    89   1
    94    35    90   1
    95    36    91   1
    96    37    92   1
    97    38    93   1
    98    39    94   1
    99    39    95   1
   100    40    96   1
   101    41    97   1
   102    42    98   1
   103    44    99   1
   104    45   100   1
   105    46   101   1
   106    47   102   1
   107    48   103   1
   108    49   104   1
   109    50   105   1
   110    52   106   1
   111    53   107   1
   112    53   108   1
   113    54   109   1
   114    54   110   1
   115    55   111   1
@<TRIPOS>SUBSTRUCTURE
     1  MOL      1

