@<TRIPOS>MOLECULE
1xd0_ligand_024
   111   115
SMALL
GAST_HUCK
****
This file was generated by PARSER (from files_GN.cpp)

@<TRIPOS>ATOM
      1 CR1        -2.4191   17.3768   39.5186 C.3         1 MOL       0.1854
      2 CR2        -2.1598   15.8512   39.4309 C.3         1 MOL       0.1339
      3 CR3        -1.0414   15.5685   38.3869 C.3         1 MOL       0.1144
      4 CR4         0.2488   16.3974   38.7007 C.3         1 MOL       0.1184
      5 CR5        -0.0983   17.9150   38.8902 C.3         1 MOL       0.1134
      6 CR6        -0.3152   18.7344   37.5858 C.3         1 MOL       0.0730
      7 OR1        -3.3634   17.6545   40.5471 O.3         1 MOL      -0.3649
      8 OR2        -1.7853   15.3871   40.7310 O.3         1 MOL      -0.3841
      9 OR3        -1.5195   15.8534   37.0681 O.3         1 MOL      -0.3864
     10 OR4         0.8911   15.9841   39.9327 O.3         1 MOL      -0.3401
     11 OR5        -1.1985   18.0927   39.8171 O.3         1 MOL      -0.3407
     12 OR6        -0.6042   20.0964   37.9061 O.3         1 MOL      -0.3924
     13 CV1         1.3548   14.6258   40.0824 C.3         1 MOL       0.1886
     14 CV2         1.6559   14.3297   41.5747 C.3         1 MOL       0.1370
     15 CV3         2.9758   14.9968   42.0325 C.3         1 MOL       0.1304
     16 CV4         4.1452   14.6352   41.0696 C.3         1 MOL       0.0334
     17 CV5         3.7557   14.9418   39.5860 C.3         1 MOL       0.1038
     18 CV6         4.7584   14.3640   38.5540 C.3         1 MOL      -0.0332
     19 OV2         0.5782   14.7802   42.3923 O.3         1 MOL      -0.3840
     20 OV3         3.2322   14.5612   43.3702 O.3         1 MOL      -0.3834
     21 NV4         5.4738   15.1704   41.4849 N.4         1 MOL       0.2370
     22 OV5         2.4904   14.3244   39.2505 O.3         1 MOL      -0.3401
     23 CQ1        11.1621   17.1673   42.0155 C.3         1 MOL       0.1883
     24 CQ2        11.5675   18.3003   41.0292 C.3         1 MOL       0.1341
     25 CQ3        13.0224   18.7898   41.2763 C.3         1 MOL       0.1144
     26 CQ4        14.0429   17.6323   41.5328 C.3         1 MOL       0.1184
     27 CQ5        13.4833   16.5465   42.5162 C.3         1 MOL       0.1134
     28 CQ6        13.5350   16.8855   44.0353 C.3         1 MOL       0.0730
     29 OQ2        11.4135   17.8725   39.6764 O.3         1 MOL      -0.3841
     30 OQ3        13.0327   19.6980   42.3839 O.3         1 MOL      -0.3864
     31 OQ4        14.6111   17.0899   40.3080 O.3         1 MOL      -0.3401
     32 OQ5        12.1679   16.1382   42.0925 O.3         1 MOL      -0.3405
     33 OQ6        12.3175   16.5028   44.6796 O.3         1 MOL      -0.3924
     34 CW1        14.0366   15.9941   39.5563 C.3         1 MOL       0.1884
     35 CW2        15.1114   14.9106   39.2957 C.3         1 MOL       0.1341
     36 CW3        16.1603   15.4049   38.2612 C.3         1 MOL       0.1141
     37 CW4        15.4668   15.9277   36.9747 C.3         1 MOL       0.1119
     38 CW5        14.3746   16.9829   37.3298 C.3         1 MOL       0.1130
     39 CW6        13.5165   17.4110   36.1099 C.3         1 MOL       0.0730
     40 OW2        15.7457   14.5472   40.5193 O.3         1 MOL      -0.3841
     41 OW3        17.0519   14.3385   37.9301 O.3         1 MOL      -0.3864
     42 OW4        16.4521   16.4780   36.0987 O.3         1 MOL      -0.3865
     43 OW5        13.4695   16.4338   38.3051 O.3         1 MOL      -0.3405
     44 OW6        14.1477   18.4701   35.3902 O.3         1 MOL      -0.3924
     45 CY1         5.6873   16.6079   41.8501 C.3         1 MOL       0.0073
     46 CY2         6.4099   17.4236   40.7307 C.3         1 MOL       0.1257
     47 OY2         5.7023   17.3912   39.4967 O.3         1 MOL      -0.3835
     48 CY3         7.8718   16.9531   40.5065 C.3         1 MOL       0.1127
     49 OY3         8.4830   17.7674   39.5073 O.3         1 MOL      -0.3864
     50 CY4         8.6901   17.0053   41.8302 C.3         1 MOL       0.0953
     51 OY4         9.9982   16.4543   41.5619 O.3         1 MOL      -0.3424
     52 CY5         7.9903   16.1713   42.9513 C.3         1 MOL       0.0162
     53 CY6         6.5341   16.6872   43.1614 C.3         1 MOL       0.0002
     54 CY7         8.7948   16.1178   44.2828 C.3         1 MOL       0.0497
     55 OY7         9.2349   17.4046   44.7051 O.3         1 MOL      -0.3946
     56 H1         -2.8553   17.7397   38.5822 H           1 MOL       0.0935
     57 H2         -3.0777   15.3373   39.1336 H           1 MOL       0.0671
     58 H3         -0.8096   14.4991   38.3951 H           1 MOL       0.0648
     59 H4          0.9626   16.2946   37.8785 H           1 MOL       0.0651
     60 H5          0.7659   18.3824   39.3733 H           1 MOL       0.0647
     61 H6         -1.1382   18.3383   36.9932 H           1 MOL       0.0584
     62 H7          0.5918   18.7062   36.9789 H           1 MOL       0.0584
     63 H8         -2.9363   17.3373   41.3702 H           1 MOL       0.2126
     64 H9         -1.7969   14.4100   40.7107 H           1 MOL       0.2101
     65 H10        -2.2629   15.2276   36.9288 H           1 MOL       0.2100
     66 H11        -1.5410   20.0962   38.1944 H           1 MOL       0.2095
     67 H12         0.5607   13.9375   39.7895 H           1 MOL       0.0938
     68 H13         1.7464   13.2483   41.7028 H           1 MOL       0.0672
     69 H14         2.8167   16.0769   42.0545 H           1 MOL       0.0679
     70 H15         4.2622   13.5505   41.1302 H           1 MOL       0.0903
     71 H16         3.6752   16.0200   39.4397 H           1 MOL       0.0652
     72 H17         4.4467   14.6355   37.5403 H           1 MOL       0.0257
     73 H18         4.7899   13.2719   38.6240 H           1 MOL       0.0257
     74 H19         5.7674   14.7442   38.7109 H           1 MOL       0.0257
     75 H20        -0.1725   14.1975   42.1660 H           1 MOL       0.2101
     76 H21         4.0192   15.0620   43.6660 H           1 MOL       0.2102
     77 H22         6.1376   14.9331   40.7506 H           1 MOL       0.2022
     78 H23         5.7417   14.6155   42.3008 H           1 MOL       0.2022
     79 H24        10.9953   17.5952   43.0106 H           1 MOL       0.0938
     80 H25        10.8817   19.1434   41.1613 H           1 MOL       0.0671
     81 H26        13.3608   19.3662   40.4102 H           1 MOL       0.0648
     82 H27        14.9124   18.0834   42.0211 H           1 MOL       0.0651
     83 H28        14.1071   15.6575   42.3979 H           1 MOL       0.0647
     84 H29        13.6970   17.9551   44.2051 H           1 MOL       0.0584
     85 H30        14.3510   16.3336   44.5119 H           1 MOL       0.0584
     86 H31        11.3185   18.6934   39.1383 H           1 MOL       0.2101
     87 H32        12.3692   20.3926   42.1766 H           1 MOL       0.2100
     88 H33        12.4826   16.5939   45.6426 H           1 MOL       0.2095
     89 H34        13.2281   15.5162   40.1038 H           1 MOL       0.0938
     90 H35        14.6184   14.0175   38.9030 H           1 MOL       0.0671
     91 H36        16.7487   16.2119   38.7047 H           1 MOL       0.0648
     92 H37        14.9957   15.0774   36.4644 H           1 MOL       0.0647
     93 H38        14.8457   17.8760   37.7459 H           1 MOL       0.0647
     94 H39        12.5413   17.7659   36.4574 H           1 MOL       0.0584
     95 H40        13.3489   16.5657   35.4376 H           1 MOL       0.0584
     96 H41        16.4206   13.8768   40.2796 H           1 MOL       0.2101
     97 H42        17.6554   14.7115   37.2526 H           1 MOL       0.2100
     98 H43        15.9791   16.6751   35.2616 H           1 MOL       0.2100
     99 H44        13.5537   18.6476   34.6298 H           1 MOL       0.2095
    100 H45         4.7335   17.1045   42.0391 H           1 MOL       0.0877
    101 H46         6.4435   18.4688   41.0463 H           1 MOL       0.0677
    102 H47         4.8444   17.8333   39.6635 H           1 MOL       0.2102
    103 H48         7.8701   15.9293   40.1228 H           1 MOL       0.0647
    104 H49         8.8447   18.5445   39.9831 H           1 MOL       0.2100
    105 H50         8.7498   18.0536   42.1465 H           1 MOL       0.0627
    106 H51         7.9317   15.1343   42.6084 H           1 MOL       0.0351
    107 H52         6.0394   16.1047   43.9429 H           1 MOL       0.0325
    108 H53         6.5650   17.7274   43.5078 H           1 MOL       0.0325
    109 H54         9.6839   15.4965   44.1485 H           1 MOL       0.0561
    110 H55         8.1923   15.6604   45.0730 H           1 MOL       0.0561
    111 H56         8.6418   17.6548   45.4425 H           1 MOL       0.2094
@<TRIPOS>BOND
     1     2     1   1
     2     1     7   1
     3    11     1   1
     4     3     2   1
     5     2     8   1
     6     4     3   1
     7     3     9   1
     8     4     5   1
     9    10     4   1
    10     5     6   1
    11     5    11   1
    12     6    12   1
    13    13    10   1
    14    14    13   1
    15    22    13   1
    16    15    14   1
    17    14    19   1
    18    16    15   1
    19    15    20   1
    20    16    17   1
    21    21    16   1
    22    17    18   1
    23    17    22   1
    24    45    21   1
    25    23    24   1
    26    23    32   1
    27    51    23   1
    28    24    25   1
    29    24    29   1
    30    25    26   1
    31    25    30   1
    32    27    26   1
    33    26    31   1
    34    27    28   1
    35    32    27   1
    36    28    33   1
    37    31    34   1
    38    34    35   1
    39    34    43   1
    40    35    36   1
    41    35    40   1
    42    36    37   1
    43    36    41   1
    44    38    37   1
    45    37    42   1
    46    38    39   1
    47    43    38   1
    48    39    44   1
    49    46    45   1
    50    45    53   1
    51    46    47   1
    52    48    46   1
    53    48    49   1
    54    50    48   1
    55    50    51   1
    56    50    52   1
    57    52    53   1
    58    52    54   1
    59    54    55   1
    60     1    56   1
    61     2    57   1
    62     3    58   1
    63     4    59   1
    64     5    60   1
    65     6    61   1
    66     6    62   1
    67     7    63   1
    68     8    64   1
    69     9    65   1
    70    12    66   1
    71    13    67   1
    72    14    68   1
    73    15    69   1
    74    16    70   1
    75    17    71   1
    76    18    72   1
    77    18    73   1
    78    18    74   1
    79    19    75   1
    80    20    76   1
    81    21    77   1
    82    21    78   1
    83    23    79   1
    84    24    80   1
    85    25    81   1
    86    26    82   1
    87    27    83   1
    88    28    84   1
    89    28    85   1
    90    29    86   1
    91    30    87   1
    92    33    88   1
    93    34    89   1
    94    35    90   1
    95    36    91   1
    96    37    92   1
    97    38    93   1
    98    39    94   1
    99    39    95   1
   100    40    96   1
   101    41    97   1
   102    42    98   1
   103    44    99   1
   104    45   100   1
   105    46   101   1
   106    47   102   1
   107    48   103   1
   108    49   104   1
   109    50   105   1
   110    52   106   1
   111    53   107   1
   112    53   108   1
   113    54   109   1
   114    54   110   1
   115    55   111   1
@<TRIPOS>SUBSTRUCTURE
     1  MOL      1

