@<TRIPOS>MOLECULE
1xd0_ligand_017
   111   115
SMALL
GAST_HUCK
****
This file was generated by PARSER (from files_GN.cpp)

@<TRIPOS>ATOM
      1 CR1         5.9769   15.2856   42.0882 C.3         1 MOL       0.1854
      2 CR2         6.3994   14.7650   43.4862 C.3         1 MOL       0.1339
      3 CR3         7.1901   15.8483   44.2755 C.3         1 MOL       0.1144
      4 CR4         8.3958   16.3487   43.4220 C.3         1 MOL       0.1184
      5 CR5         7.8671   16.8389   42.0308 C.3         1 MOL       0.1134
      6 CR6         8.9859   17.2877   41.0524 C.3         1 MOL       0.0730
      7 OR1         4.9535   16.2749   42.1650 O.3         1 MOL      -0.3649
      8 OR2         5.2483   14.3352   44.2109 O.3         1 MOL      -0.3841
      9 OR3         7.6168   15.2702   45.5113 O.3         1 MOL      -0.3864
     10 OR4         9.1296   17.4538   43.9926 O.3         1 MOL      -0.3401
     11 OR5         7.1158   15.7943   41.3630 O.3         1 MOL      -0.3407
     12 OR6         9.8276   16.2051   40.6663 O.3         1 MOL      -0.3924
     13 CV1        10.1453   17.2616   45.0024 C.3         1 MOL       0.1886
     14 CV2        11.0444   18.5227   45.0669 C.3         1 MOL       0.1370
     15 CV3        11.8550   18.7000   43.7580 C.3         1 MOL       0.1304
     16 CV4        12.5872   17.3890   43.3097 C.3         1 MOL       0.0334
     17 CV5        11.7883   16.0739   43.6336 C.3         1 MOL       0.1038
     18 CV6        12.7198   14.8321   43.7514 C.3         1 MOL      -0.0332
     19 OV2        10.2621   19.6842   45.3293 O.3         1 MOL      -0.3840
     20 OV3        12.8109   19.7484   43.9438 O.3         1 MOL      -0.3834
     21 NV4        12.7791   17.4019   41.8284 N.4         1 MOL       0.2370
     22 OV5        11.0052   16.1179   44.8397 O.3         1 MOL      -0.3401
     23 CQ1        14.4458   15.0380   36.7673 C.3         1 MOL       0.1883
     24 CQ2        14.1207   13.5632   36.4128 C.3         1 MOL       0.1341
     25 CQ3        14.1928   13.3332   34.8744 C.3         1 MOL       0.1144
     26 CQ4        15.4657   13.9451   34.1986 C.3         1 MOL       0.1184
     27 CQ5        15.9055   15.3304   34.8008 C.3         1 MOL       0.1134
     28 CQ6        15.3437   16.5900   34.0753 C.3         1 MOL       0.0730
     29 OQ2        15.0072   12.6855   37.1086 O.3         1 MOL      -0.3841
     30 OQ3        13.0096   13.8812   34.2819 O.3         1 MOL      -0.3864
     31 OQ4        16.5174   12.9555   34.0593 O.3         1 MOL      -0.3401
     32 OQ5        15.7336   15.4032   36.2350 O.3         1 MOL      -0.3405
     33 OQ6        14.0749   16.4025   33.4554 O.3         1 MOL      -0.3924
     34 CW1        17.4579   12.6230   35.1002 C.3         1 MOL       0.1884
     35 CW2        18.8728   12.6959   34.4612 C.3         1 MOL       0.1341
     36 CW3        19.9423   12.1710   35.4569 C.3         1 MOL       0.1141
     37 CW4        19.5660   10.7716   36.0151 C.3         1 MOL       0.1119
     38 CW5        18.1007   10.7262   36.5581 C.3         1 MOL       0.1130
     39 CW6        17.9210   11.3072   38.0001 C.3         1 MOL       0.0730
     40 OW2        18.9361   11.9436   33.2468 O.3         1 MOL      -0.3841
     41 OW3        20.1022   13.1021   36.5308 O.3         1 MOL      -0.3864
     42 OW4        19.7357    9.7765   34.9991 O.3         1 MOL      -0.3865
     43 OW5        17.1678   11.2912   35.5976 O.3         1 MOL      -0.3405
     44 OW6        17.0924   10.4704   38.8059 O.3         1 MOL      -0.3924
     45 CY1        13.8957   18.1715   41.2207 C.3         1 MOL       0.0073
     46 CY2        13.5053   18.5729   39.7725 C.3         1 MOL       0.1257
     47 OY2        12.2630   19.2844   39.8265 O.3         1 MOL      -0.3835
     48 CY3        13.4023   17.3385   38.8272 C.3         1 MOL       0.1127
     49 OY3        13.1663   17.8047   37.4979 O.3         1 MOL      -0.3864
     50 CY4        14.6796   16.4374   38.8432 C.3         1 MOL       0.0953
     51 OY4        14.4336   15.1592   38.2008 O.3         1 MOL      -0.3424
     52 CY5        15.1428   16.0932   40.3005 C.3         1 MOL       0.0162
     53 CY6        15.2169   17.3598   41.2104 C.3         1 MOL       0.0002
     54 CY7        16.4810   15.2993   40.3434 C.3         1 MOL       0.0497
     55 OY7        17.6045   16.0988   39.9823 O.3         1 MOL      -0.3946
     56 H1          5.5819   14.4452   41.5119 H           1 MOL       0.0935
     57 H2          7.0453   13.8929   43.3415 H           1 MOL       0.0671
     58 H3          6.5208   16.6884   44.5039 H           1 MOL       0.0648
     59 H4          9.0721   15.5033   43.2454 H           1 MOL       0.0651
     60 H5          7.2130   17.7073   42.1884 H           1 MOL       0.0647
     61 H6          9.6066   18.0625   41.5208 H           1 MOL       0.0584
     62 H7          8.5312   17.7175   40.1532 H           1 MOL       0.0584
     63 H8          4.1938   15.8283   42.5963 H           1 MOL       0.2126
     64 H9          5.4991   13.4606   44.5740 H           1 MOL       0.2101
     65 H10         7.7917   16.0281   46.1059 H           1 MOL       0.2100
     66 H11         9.2525   15.6144   40.1329 H           1 MOL       0.2095
     67 H12         9.6550   17.1606   45.9699 H           1 MOL       0.0938
     68 H13        11.7465   18.4099   45.8966 H           1 MOL       0.0672
     69 H14        11.1640   19.0172   42.9692 H           1 MOL       0.0679
     70 H15        13.5548   17.3431   43.8200 H           1 MOL       0.0903
     71 H16        11.0887   15.8590   42.8186 H           1 MOL       0.0652
     72 H17        12.1212   13.9452   43.9876 H           1 MOL       0.0257
     73 H18        13.4627   14.9716   44.5477 H           1 MOL       0.0257
     74 H19        13.2433   14.6484   42.8065 H           1 MOL       0.0257
     75 H20         9.8619   19.9290   44.4673 H           1 MOL       0.2101
     76 H21        12.2909   20.5511   44.1635 H           1 MOL       0.2102
     77 H22        11.9062   17.7469   41.4277 H           1 MOL       0.2022
     78 H23        12.8744   16.4331   41.5186 H           1 MOL       0.2022
     79 H24        13.6543   15.6769   36.3631 H           1 MOL       0.0938
     80 H25        13.1038   13.3418   36.7632 H           1 MOL       0.0671
     81 H26        14.1639   12.2550   34.6854 H           1 MOL       0.0648
     82 H27        15.2051   14.1239   33.1508 H           1 MOL       0.0651
     83 H28        16.9888   15.4047   34.6576 H           1 MOL       0.0647
     84 H29        16.0398   16.8886   33.2865 H           1 MOL       0.0584
     85 H30        15.2720   17.4203   34.7860 H           1 MOL       0.0584
     86 H31        14.5446   11.8195   37.1406 H           1 MOL       0.2101
     87 H32        12.9501   13.4671   33.3919 H           1 MOL       0.2100
     88 H33        13.4335   16.2835   34.1829 H           1 MOL       0.2095
     89 H34        17.4073   13.3429   35.9220 H           1 MOL       0.0938
     90 H35        19.1008   13.7379   34.2120 H           1 MOL       0.0671
     91 H36        20.9093   12.1011   34.9445 H           1 MOL       0.0648
     92 H37        20.2682   10.5024   36.8114 H           1 MOL       0.0647
     93 H38        17.8357    9.6665   36.6287 H           1 MOL       0.0647
     94 H39        17.4823   12.3054   37.9764 H           1 MOL       0.0584
     95 H40        18.8827   11.3883   38.5144 H           1 MOL       0.0584
     96 H41        18.3436   12.4118   32.6233 H           1 MOL       0.2101
     97 H42        20.6448   13.8287   36.1591 H           1 MOL       0.2100
     98 H43        19.0968   10.0060   34.2919 H           1 MOL       0.2100
     99 H44        16.2429   10.3829   38.3237 H           1 MOL       0.2095
    100 H45        14.0595   19.0936   41.7951 H           1 MOL       0.0877
    101 H46        14.2605   19.2633   39.3805 H           1 MOL       0.0677
    102 H47        12.0178   19.4864   38.9033 H           1 MOL       0.2102
    103 H48        12.5394   16.7380   39.1245 H           1 MOL       0.0647
    104 H49        12.3640   18.3684   37.5541 H           1 MOL       0.2100
    105 H50        15.4968   16.9716   38.3428 H           1 MOL       0.0627
    106 H51        14.3923   15.4212   40.7246 H           1 MOL       0.0351
    107 H52        15.4630   17.0554   42.2290 H           1 MOL       0.0325
    108 H53        16.0176   18.0135   40.8609 H           1 MOL       0.0325
    109 H54        16.4359   14.4521   39.6576 H           1 MOL       0.0561
    110 H55        16.6476   14.9034   41.3468 H           1 MOL       0.0561
    111 H56        17.7139   16.7559   40.6998 H           1 MOL       0.2094
@<TRIPOS>BOND
     1     2     1   1
     2     1     7   1
     3    11     1   1
     4     3     2   1
     5     2     8   1
     6     4     3   1
     7     3     9   1
     8     4     5   1
     9    10     4   1
    10     5     6   1
    11     5    11   1
    12     6    12   1
    13    13    10   1
    14    14    13   1
    15    22    13   1
    16    15    14   1
    17    14    19   1
    18    16    15   1
    19    15    20   1
    20    16    17   1
    21    21    16   1
    22    17    18   1
    23    17    22   1
    24    45    21   1
    25    23    24   1
    26    23    32   1
    27    51    23   1
    28    24    25   1
    29    24    29   1
    30    25    26   1
    31    25    30   1
    32    27    26   1
    33    26    31   1
    34    27    28   1
    35    32    27   1
    36    28    33   1
    37    31    34   1
    38    34    35   1
    39    34    43   1
    40    35    36   1
    41    35    40   1
    42    36    37   1
    43    36    41   1
    44    38    37   1
    45    37    42   1
    46    38    39   1
    47    43    38   1
    48    39    44   1
    49    46    45   1
    50    45    53   1
    51    46    47   1
    52    48    46   1
    53    48    49   1
    54    50    48   1
    55    50    51   1
    56    50    52   1
    57    52    53   1
    58    52    54   1
    59    54    55   1
    60     1    56   1
    61     2    57   1
    62     3    58   1
    63     4    59   1
    64     5    60   1
    65     6    61   1
    66     6    62   1
    67     7    63   1
    68     8    64   1
    69     9    65   1
    70    12    66   1
    71    13    67   1
    72    14    68   1
    73    15    69   1
    74    16    70   1
    75    17    71   1
    76    18    72   1
    77    18    73   1
    78    18    74   1
    79    19    75   1
    80    20    76   1
    81    21    77   1
    82    21    78   1
    83    23    79   1
    84    24    80   1
    85    25    81   1
    86    26    82   1
    87    27    83   1
    88    28    84   1
    89    28    85   1
    90    29    86   1
    91    30    87   1
    92    33    88   1
    93    34    89   1
    94    35    90   1
    95    36    91   1
    96    37    92   1
    97    38    93   1
    98    39    94   1
    99    39    95   1
   100    40    96   1
   101    41    97   1
   102    42    98   1
   103    44    99   1
   104    45   100   1
   105    46   101   1
   106    47   102   1
   107    48   103   1
   108    49   104   1
   109    50   105   1
   110    52   106   1
   111    53   107   1
   112    53   108   1
   113    54   109   1
   114    54   110   1
   115    55   111   1
@<TRIPOS>SUBSTRUCTURE
     1  MOL      1

