@<TRIPOS>MOLECULE
1xd0_ligand_028
   111   115
SMALL
GAST_HUCK
****
This file was generated by PARSER (from files_GN.cpp)

@<TRIPOS>ATOM
      1 CR1        15.4814   16.0940   41.3085 C.3         1 MOL       0.1854
      2 CR2        15.0353   17.5213   40.8980 C.3         1 MOL       0.1339
      3 CR3        13.6051   17.5123   40.3033 C.3         1 MOL       0.1144
      4 CR4        12.6037   16.7572   41.2258 C.3         1 MOL       0.1184
      5 CR5        13.1329   15.3459   41.6465 C.3         1 MOL       0.1134
      6 CR6        12.8565   14.1802   40.6455 C.3         1 MOL       0.0730
      7 OR1        16.6959   16.1479   42.0563 O.3         1 MOL      -0.3649
      8 OR2        15.0972   18.4219   42.0031 O.3         1 MOL      -0.3841
      9 OR3        13.6134   16.9214   39.0055 O.3         1 MOL      -0.3864
     10 OR4        12.3463   17.4474   42.4685 O.3         1 MOL      -0.3401
     11 OR5        14.4993   15.4103   42.1202 O.3         1 MOL      -0.3407
     12 OR6        13.9918   13.7413   39.9091 O.3         1 MOL      -0.3924
     13 CV1        11.6783   18.7241   42.5487 C.3         1 MOL       0.1886
     14 CV2        11.3514   18.9887   44.0406 C.3         1 MOL       0.1370
     15 CV3        10.2659   17.9919   44.5393 C.3         1 MOL       0.1304
     16 CV4         9.0060   17.9995   43.6128 C.3         1 MOL       0.0334
     17 CV5         9.3906   17.9397   42.0919 C.3         1 MOL       0.1038
     18 CV6         8.2238   18.3119   41.1422 C.3         1 MOL      -0.0332
     19 OV2        12.5484   18.8755   44.8041 O.3         1 MOL      -0.3840
     20 OV3         9.8959   18.3484   45.8759 O.3         1 MOL      -0.3834
     21 NV4         7.9180   17.0615   44.0373 N.4         1 MOL       0.2370
     22 OV5        10.4773   18.8395   41.7615 O.3         1 MOL      -0.3401
     23 CQ1         3.9214   15.1520   41.5200 C.3         1 MOL       0.1883
     24 CQ2         2.6998   15.8076   42.2058 C.3         1 MOL       0.1341
     25 CQ3         2.1355   16.9217   41.2783 C.3         1 MOL       0.1144
     26 CQ4         1.8502   16.4343   39.8188 C.3         1 MOL       0.1184
     27 CQ5         2.9396   15.4339   39.2780 C.3         1 MOL       0.1134
     28 CQ6         4.0598   16.1021   38.4289 C.3         1 MOL       0.0730
     29 OQ2         1.7110   14.8138   42.4847 O.3         1 MOL      -0.3841
     30 OQ3         3.0524   18.0195   41.2821 O.3         1 MOL      -0.3864
     31 OQ4         0.5211   15.8466   39.7922 O.3         1 MOL      -0.3401
     32 OQ5         3.4968   14.5502   40.2849 O.3         1 MOL      -0.3405
     33 OQ6         4.8954   17.0035   39.1536 O.3         1 MOL      -0.3924
     34 CW1        -0.1964   15.7437   38.5265 C.3         1 MOL       0.1884
     35 CW2        -0.7142   17.0842   37.9154 C.3         1 MOL       0.1341
     36 CW3        -1.7049   17.7656   38.8992 C.3         1 MOL       0.1141
     37 CW4        -2.8585   16.7907   39.2889 C.3         1 MOL       0.1119
     38 CW5        -2.3306   15.3657   39.6666 C.3         1 MOL       0.1130
     39 CW6        -3.4897   14.3297   39.7332 C.3         1 MOL       0.0730
     40 OW2         0.3309   17.9839   37.5427 O.3         1 MOL      -0.3841
     41 OW3        -2.2372   18.9371   38.2717 O.3         1 MOL      -0.3864
     42 OW4        -3.6199   17.3285   40.3743 O.3         1 MOL      -0.3865
     43 OW5        -1.3464   14.8891   38.7159 O.3         1 MOL      -0.3405
     44 OW6        -3.0395   12.9942   39.5104 O.3         1 MOL      -0.3924
     45 CY1         8.1056   15.6012   44.3449 C.3         1 MOL       0.0073
     46 CY2         8.2587   14.6073   43.1470 C.3         1 MOL       0.1257
     47 OY2         9.4358   14.8500   42.3864 O.3         1 MOL      -0.3835
     48 CY3         6.9826   14.6203   42.2513 C.3         1 MOL       0.1127
     49 OY3         7.1487   13.7673   41.1223 O.3         1 MOL      -0.3864
     50 CY4         5.7098   14.2107   43.0614 C.3         1 MOL       0.0953
     51 OY4         4.4813   14.0732   42.2962 O.3         1 MOL      -0.3424
     52 CY5         5.5323   15.0674   44.3647 C.3         1 MOL       0.0162
     53 CY6         6.8728   15.1403   45.1839 C.3         1 MOL       0.0002
     54 CY7         4.3760   14.5075   45.2522 C.3         1 MOL       0.0497
     55 OY7         4.0474   15.3600   46.3469 O.3         1 MOL      -0.3946
     56 H1         15.6944   15.5154   40.4108 H           1 MOL       0.0935
     57 H2         15.7341   17.9000   40.1488 H           1 MOL       0.0671
     58 H3         13.2689   18.5408   40.1634 H           1 MOL       0.0648
     59 H4         11.6591   16.6441   40.6901 H           1 MOL       0.0651
     60 H5         12.5539   15.0606   42.5322 H           1 MOL       0.0647
     61 H6         12.0711   14.4636   39.9391 H           1 MOL       0.0584
     62 H7         12.4942   13.3107   41.1975 H           1 MOL       0.0584
     63 H8         17.2312   16.8670   41.6509 H           1 MOL       0.2126
     64 H9         14.4589   18.0774   42.6621 H           1 MOL       0.2101
     65 H10        14.1570   17.5153   38.4469 H           1 MOL       0.2100
     66 H11        14.0405   14.3260   39.1265 H           1 MOL       0.2095
     67 H12        12.3624   19.5002   42.2001 H           1 MOL       0.0938
     68 H13        10.9735   20.0102   44.1411 H           1 MOL       0.0672
     69 H14        10.7100   16.9947   44.5559 H           1 MOL       0.0679
     70 H15         8.5526   18.9856   43.7671 H           1 MOL       0.0903
     71 H16         9.7081   16.9304   41.8558 H           1 MOL       0.0652
     72 H17         8.5592   18.2180   40.1076 H           1 MOL       0.0257
     73 H18         7.8999   19.3422   41.3061 H           1 MOL       0.0257
     74 H19         7.3706   17.6497   41.2883 H           1 MOL       0.0257
     75 H20        12.3237   18.3269   45.5835 H           1 MOL       0.2101
     76 H21         9.3221   17.6227   46.2002 H           1 MOL       0.2102
     77 H22         7.1570   17.1381   43.3611 H           1 MOL       0.2022
     78 H23         7.5685   17.4797   44.9062 H           1 MOL       0.2022
     79 H24         4.6620   15.9195   41.3134 H           1 MOL       0.0938
     80 H25         3.0203   16.2436   43.1579 H           1 MOL       0.0671
     81 H26         1.2085   17.3009   41.7160 H           1 MOL       0.0648
     82 H27         1.8472   17.3250   39.1867 H           1 MOL       0.0651
     83 H28         2.4362   14.7499   38.5900 H           1 MOL       0.0647
     84 H29         3.5967   16.6524   37.6070 H           1 MOL       0.0584
     85 H30         4.6921   15.3195   38.0041 H           1 MOL       0.0584
     86 H31         1.0768   14.8746   41.7404 H           1 MOL       0.2101
     87 H32         3.0490   18.3503   40.3621 H           1 MOL       0.2100
     88 H33         4.6913   17.8942   38.7980 H           1 MOL       0.2095
     89 H34         0.4361   15.2544   37.7790 H           1 MOL       0.0938
     90 H35        -1.2679   16.8426   37.0001 H           1 MOL       0.0671
     91 H36        -1.1653   18.0789   39.8015 H           1 MOL       0.0648
     92 H37        -3.5220   16.7072   38.4192 H           1 MOL       0.0647
     93 H38        -1.8630   15.4104   40.6582 H           1 MOL       0.0647
     94 H39        -4.2420   14.5369   38.9674 H           1 MOL       0.0584
     95 H40        -3.9721   14.3835   40.7124 H           1 MOL       0.0584
     96 H41         0.8458   17.4956   36.8680 H           1 MOL       0.2101
     97 H42        -2.7193   19.4200   38.9751 H           1 MOL       0.2100
     98 H43        -4.2115   17.9976   39.9681 H           1 MOL       0.2100
     99 H44        -2.5363   12.7586   40.3124 H           1 MOL       0.2095
    100 H45         8.9735   15.4759   44.9944 H           1 MOL       0.0877
    101 H46         8.3725   13.5932   43.5547 H           1 MOL       0.0677
    102 H47         9.4413   14.1596   41.6936 H           1 MOL       0.2102
    103 H48         6.8818   15.6310   41.8584 H           1 MOL       0.0647
    104 H49         6.5849   12.9816   41.2868 H           1 MOL       0.2100
    105 H50         5.9015   13.1898   43.4044 H           1 MOL       0.0627
    106 H51         5.2642   16.0885   44.0641 H           1 MOL       0.0351
    107 H52         6.7479   15.8188   46.0362 H           1 MOL       0.0325
    108 H53         7.0850   14.1482   45.5994 H           1 MOL       0.0325
    109 H54         4.6508   13.5245   45.6511 H           1 MOL       0.0561
    110 H55         3.4692   14.3918   44.6537 H           1 MOL       0.0561
    111 H56         4.8172   15.3078   46.9554 H           1 MOL       0.2094
@<TRIPOS>BOND
     1     2     1   1
     2     1     7   1
     3    11     1   1
     4     3     2   1
     5     2     8   1
     6     4     3   1
     7     3     9   1
     8     4     5   1
     9    10     4   1
    10     5     6   1
    11     5    11   1
    12     6    12   1
    13    13    10   1
    14    14    13   1
    15    22    13   1
    16    15    14   1
    17    14    19   1
    18    16    15   1
    19    15    20   1
    20    16    17   1
    21    21    16   1
    22    17    18   1
    23    17    22   1
    24    45    21   1
    25    23    24   1
    26    23    32   1
    27    51    23   1
    28    24    25   1
    29    24    29   1
    30    25    26   1
    31    25    30   1
    32    27    26   1
    33    26    31   1
    34    27    28   1
    35    32    27   1
    36    28    33   1
    37    31    34   1
    38    34    35   1
    39    34    43   1
    40    35    36   1
    41    35    40   1
    42    36    37   1
    43    36    41   1
    44    38    37   1
    45    37    42   1
    46    38    39   1
    47    43    38   1
    48    39    44   1
    49    46    45   1
    50    45    53   1
    51    46    47   1
    52    48    46   1
    53    48    49   1
    54    50    48   1
    55    50    51   1
    56    50    52   1
    57    52    53   1
    58    52    54   1
    59    54    55   1
    60     1    56   1
    61     2    57   1
    62     3    58   1
    63     4    59   1
    64     5    60   1
    65     6    61   1
    66     6    62   1
    67     7    63   1
    68     8    64   1
    69     9    65   1
    70    12    66   1
    71    13    67   1
    72    14    68   1
    73    15    69   1
    74    16    70   1
    75    17    71   1
    76    18    72   1
    77    18    73   1
    78    18    74   1
    79    19    75   1
    80    20    76   1
    81    21    77   1
    82    21    78   1
    83    23    79   1
    84    24    80   1
    85    25    81   1
    86    26    82   1
    87    27    83   1
    88    28    84   1
    89    28    85   1
    90    29    86   1
    91    30    87   1
    92    33    88   1
    93    34    89   1
    94    35    90   1
    95    36    91   1
    96    37    92   1
    97    38    93   1
    98    39    94   1
    99    39    95   1
   100    40    96   1
   101    41    97   1
   102    42    98   1
   103    44    99   1
   104    45   100   1
   105    46   101   1
   106    47   102   1
   107    48   103   1
   108    49   104   1
   109    50   105   1
   110    52   106   1
   111    53   107   1
   112    53   108   1
   113    54   109   1
   114    54   110   1
   115    55   111   1
@<TRIPOS>SUBSTRUCTURE
     1  MOL      1

