@<TRIPOS>MOLECULE
1xd0_ligand_078
   111   115
SMALL
GAST_HUCK
****
This file was generated by PARSER (from files_GN.cpp)

@<TRIPOS>ATOM
      1 CR1        10.2929   17.8973   45.0262 C.3         1 MOL       0.1854
      2 CR2        11.1196   19.1988   44.8848 C.3         1 MOL       0.1339
      3 CR3        11.8612   19.2160   43.5212 C.3         1 MOL       0.1144
      4 CR4        12.7353   17.9391   43.3539 C.3         1 MOL       0.1184
      5 CR5        11.8810   16.6431   43.5855 C.3         1 MOL       0.1134
      6 CR6        12.7414   15.3365   43.6750 C.3         1 MOL       0.0730
      7 OR1         9.1680   17.8781   44.1450 O.3         1 MOL      -0.3649
      8 OR2        10.2623   20.3305   45.0395 O.3         1 MOL      -0.3841
      9 OR3        12.6840   20.3837   43.4092 O.3         1 MOL      -0.3864
     10 OR4        13.6016   18.0137   42.1867 O.3         1 MOL      -0.3401
     11 OR5        11.1070   16.7328   44.8093 O.3         1 MOL      -0.3407
     12 OR6        12.7050   14.6926   44.9481 O.3         1 MOL      -0.3924
     13 CV1        13.5067   17.3631   40.8997 C.3         1 MOL       0.1886
     14 CV2        12.8259   18.1890   39.7570 C.3         1 MOL       0.1370
     15 CV3        12.6170   17.3307   38.4715 C.3         1 MOL       0.1304
     16 CV4        12.0142   15.9293   38.7883 C.3         1 MOL       0.0334
     17 CV5        12.8876   15.2056   39.8661 C.3         1 MOL       0.1038
     18 CV6        14.2696   14.6745   39.3890 C.3         1 MOL      -0.0332
     19 OV2        11.5693   18.7327   40.1382 O.3         1 MOL      -0.3840
     20 OV3        13.8456   17.2020   37.7495 O.3         1 MOL      -0.3834
     21 NV4        10.5924   16.1448   39.2145 N.4         1 MOL       0.2370
     22 OV5        12.9832   16.0298   41.0411 O.3         1 MOL      -0.3401
     23 CQ1         5.2666   16.3859   36.2264 C.3         1 MOL       0.1883
     24 CQ2         3.9703   17.2295   36.2348 C.3         1 MOL       0.1341
     25 CQ3         3.0138   16.7658   35.1021 C.3         1 MOL       0.1144
     26 CQ4         2.7587   15.2281   35.1259 C.3         1 MOL       0.1184
     27 CQ5         4.0727   14.4014   35.3602 C.3         1 MOL       0.1134
     28 CQ6         4.8488   13.9790   34.0809 C.3         1 MOL       0.0730
     29 OQ2         3.3165   17.1044   37.4948 O.3         1 MOL      -0.3841
     30 OQ3         3.5298   17.1842   33.8375 O.3         1 MOL      -0.3864
     31 OQ4         1.7718   14.9930   36.1612 O.3         1 MOL      -0.3401
     32 OQ5         4.9257   14.9903   36.3648 O.3         1 MOL      -0.3405
     33 OQ6         5.3565   15.0504   33.3010 O.3         1 MOL      -0.3924
     34 CW1         1.1136   13.7059   36.2464 C.3         1 MOL       0.1884
     35 CW2        -0.4091   13.8727   36.0069 C.3         1 MOL       0.1341
     36 CW3        -1.0653   14.6416   37.1820 C.3         1 MOL       0.1141
     37 CW4        -0.7086   13.9889   38.5476 C.3         1 MOL       0.1119
     38 CW5         0.8348   13.8030   38.6855 C.3         1 MOL       0.1130
     39 CW6         1.2690   12.9966   39.9375 C.3         1 MOL       0.0730
     40 OW2        -0.6520   14.5387   34.7691 O.3         1 MOL      -0.3841
     41 OW3        -2.4821   14.6629   36.9979 O.3         1 MOL      -0.3864
     42 OW4        -1.2409   14.8100   39.5872 O.3         1 MOL      -0.3865
     43 OW5         1.3464   13.0919   37.5326 O.3         1 MOL      -0.3405
     44 OW6         1.1480   13.7316   41.1510 O.3         1 MOL      -0.3924
     45 CY1         9.5973   15.0366   39.3373 C.3         1 MOL       0.0073
     46 CY2         9.1349   14.4255   37.9844 C.3         1 MOL       0.1257
     47 OY2        10.2430   14.0420   37.1744 O.3         1 MOL      -0.3835
     48 CY3         8.2112   15.3710   37.1723 C.3         1 MOL       0.1127
     49 OY3         7.8227   14.6459   36.0036 O.3         1 MOL      -0.3864
     50 CY4         6.9677   15.8547   37.9917 C.3         1 MOL       0.0953
     51 OY4         6.1541   16.8246   37.2797 O.3         1 MOL      -0.3424
     52 CY5         7.4256   16.4976   39.3452 C.3         1 MOL       0.0162
     53 CY6         8.3554   15.5284   40.1388 C.3         1 MOL       0.0002
     54 CY7         6.2099   16.9347   40.2204 C.3         1 MOL       0.0497
     55 OY7         6.6052   17.6714   41.3784 O.3         1 MOL      -0.3946
     56 H1          9.9127   17.8373   46.0455 H           1 MOL       0.0935
     57 H2         11.8622   19.2314   45.6839 H           1 MOL       0.0671
     58 H3         11.1081   19.2570   42.7302 H           1 MOL       0.0648
     59 H4         13.4415   17.9664   44.1906 H           1 MOL       0.0651
     60 H5         11.1731   16.5457   42.7580 H           1 MOL       0.0647
     61 H6         13.7881   15.5354   43.4379 H           1 MOL       0.0584
     62 H7         12.3693   14.6058   42.9556 H           1 MOL       0.0584
     63 H8          8.4631   18.3445   44.6366 H           1 MOL       0.2126
     64 H9         10.8117   21.0938   44.7768 H           1 MOL       0.2101
     65 H10        12.1369   21.0294   42.9160 H           1 MOL       0.2100
     66 H11        12.8700   15.3898   45.6144 H           1 MOL       0.2095
     67 H12        14.5571   17.2612   40.6063 H           1 MOL       0.0938
     68 H13        13.4705   19.0412   39.5219 H           1 MOL       0.0672
     69 H14        11.9340   17.8572   37.7913 H           1 MOL       0.0679
     70 H15        12.0220   15.3587   37.8628 H           1 MOL       0.0903
     71 H16        12.3613   14.2978   40.1705 H           1 MOL       0.0652
     72 H17        14.7263   14.0824   40.1911 H           1 MOL       0.0257
     73 H18        14.9720   15.4667   39.1333 H           1 MOL       0.0257
     74 H19        14.1473   14.0280   38.5109 H           1 MOL       0.0257
     75 H20        11.2830   19.2538   39.3540 H           1 MOL       0.2101
     76 H21        14.0905   18.1205   37.4820 H           1 MOL       0.2102
     77 H22        10.1804   16.8447   38.5900 H           1 MOL       0.2022
     78 H23        10.6389   16.5705   40.1491 H           1 MOL       0.2022
     79 H24         5.7707   16.5807   35.2772 H           1 MOL       0.0938
     80 H25         4.2134   18.2880   36.0767 H           1 MOL       0.0671
     81 H26         2.0616   17.2857   35.2183 H           1 MOL       0.0648
     82 H27         2.3112   14.9448   34.1668 H           1 MOL       0.0651
     83 H28         3.7778   13.4474   35.8035 H           1 MOL       0.0647
     84 H29         4.2011   13.3752   33.4420 H           1 MOL       0.0584
     85 H30         5.6937   13.3553   34.3750 H           1 MOL       0.0584
     86 H31         3.3894   17.9966   37.9010 H           1 MOL       0.2101
     87 H32         2.8008   17.0489   33.1987 H           1 MOL       0.2100
     88 H33         4.5686   15.5198   32.9588 H           1 MOL       0.2095
     89 H34         1.4881   13.0203   35.4807 H           1 MOL       0.0938
     90 H35        -0.8633   12.8811   35.9372 H           1 MOL       0.0671
     91 H36        -0.7115   15.6783   37.1746 H           1 MOL       0.0648
     92 H37        -1.1964   13.0094   38.6009 H           1 MOL       0.0647
     93 H38         1.3135   14.7848   38.7417 H           1 MOL       0.0647
     94 H39         2.3215   12.7230   39.8336 H           1 MOL       0.0584
     95 H40         0.6879   12.0766   40.0188 H           1 MOL       0.0584
     96 H41        -0.2382   15.4235   34.8578 H           1 MOL       0.2101
     97 H42        -2.8239   15.2784   37.6810 H           1 MOL       0.2100
     98 H43        -1.3898   14.2007   40.3389 H           1 MOL       0.2100
     99 H44         0.3089   13.4322   41.5545 H           1 MOL       0.2095
    100 H45        10.0349   14.2355   39.9347 H           1 MOL       0.0877
    101 H46         8.5770   13.5053   38.2094 H           1 MOL       0.0677
    102 H47         9.9020   14.0247   36.2559 H           1 MOL       0.2102
    103 H48         8.7737   16.2471   36.8458 H           1 MOL       0.0647
    104 H49         7.2200   13.9432   36.3239 H           1 MOL       0.2100
    105 H50         6.3481   14.9759   38.2312 H           1 MOL       0.0627
    106 H51         7.9915   17.4005   39.1158 H           1 MOL       0.0351
    107 H52         8.7102   16.0198   41.0494 H           1 MOL       0.0325
    108 H53         7.7755   14.6531   40.4465 H           1 MOL       0.0325
    109 H54         5.6260   16.0613   40.5398 H           1 MOL       0.0561
    110 H55         5.5494   17.5904   39.6502 H           1 MOL       0.0561
    111 H56         6.8707   17.0021   42.0430 H           1 MOL       0.2094
@<TRIPOS>BOND
     1     2     1   1
     2     1     7   1
     3    11     1   1
     4     3     2   1
     5     2     8   1
     6     4     3   1
     7     3     9   1
     8     4     5   1
     9    10     4   1
    10     5     6   1
    11     5    11   1
    12     6    12   1
    13    13    10   1
    14    14    13   1
    15    22    13   1
    16    15    14   1
    17    14    19   1
    18    16    15   1
    19    15    20   1
    20    16    17   1
    21    21    16   1
    22    17    18   1
    23    17    22   1
    24    45    21   1
    25    23    24   1
    26    23    32   1
    27    51    23   1
    28    24    25   1
    29    24    29   1
    30    25    26   1
    31    25    30   1
    32    27    26   1
    33    26    31   1
    34    27    28   1
    35    32    27   1
    36    28    33   1
    37    31    34   1
    38    34    35   1
    39    34    43   1
    40    35    36   1
    41    35    40   1
    42    36    37   1
    43    36    41   1
    44    38    37   1
    45    37    42   1
    46    38    39   1
    47    43    38   1
    48    39    44   1
    49    46    45   1
    50    45    53   1
    51    46    47   1
    52    48    46   1
    53    48    49   1
    54    50    48   1
    55    50    51   1
    56    50    52   1
    57    52    53   1
    58    52    54   1
    59    54    55   1
    60     1    56   1
    61     2    57   1
    62     3    58   1
    63     4    59   1
    64     5    60   1
    65     6    61   1
    66     6    62   1
    67     7    63   1
    68     8    64   1
    69     9    65   1
    70    12    66   1
    71    13    67   1
    72    14    68   1
    73    15    69   1
    74    16    70   1
    75    17    71   1
    76    18    72   1
    77    18    73   1
    78    18    74   1
    79    19    75   1
    80    20    76   1
    81    21    77   1
    82    21    78   1
    83    23    79   1
    84    24    80   1
    85    25    81   1
    86    26    82   1
    87    27    83   1
    88    28    84   1
    89    28    85   1
    90    29    86   1
    91    30    87   1
    92    33    88   1
    93    34    89   1
    94    35    90   1
    95    36    91   1
    96    37    92   1
    97    38    93   1
    98    39    94   1
    99    39    95   1
   100    40    96   1
   101    41    97   1
   102    42    98   1
   103    44    99   1
   104    45   100   1
   105    46   101   1
   106    47   102   1
   107    48   103   1
   108    49   104   1
   109    50   105   1
   110    52   106   1
   111    53   107   1
   112    53   108   1
   113    54   109   1
   114    54   110   1
   115    55   111   1
@<TRIPOS>SUBSTRUCTURE
     1  MOL      1

