@<TRIPOS>MOLECULE
1xd0_ligand_075
   111   115
SMALL
GAST_HUCK
****
This file was generated by PARSER (from files_GN.cpp)

@<TRIPOS>ATOM
      1 CR1        16.3831   18.7775   30.7277 C.3         1 MOL       0.1854
      2 CR2        17.1808   17.8064   31.6414 C.3         1 MOL       0.1339
      3 CR3        16.2157   16.9713   32.5315 C.3         1 MOL       0.1144
      4 CR4        15.2151   17.8964   33.2836 C.3         1 MOL       0.1184
      5 CR5        14.4934   18.8566   32.2877 C.3         1 MOL       0.1134
      6 CR6        13.5964   19.9015   32.9983 C.3         1 MOL       0.0730
      7 OR1        15.6885   18.0912   29.6842 O.3         1 MOL      -0.3649
      8 OR2        18.0110   16.9481   30.8610 O.3         1 MOL      -0.3841
      9 OR3        16.9823   16.2037   33.4602 O.3         1 MOL      -0.3864
     10 OR4        14.2682   17.2598   34.1776 O.3         1 MOL      -0.3401
     11 OR5        15.4651   19.5822   31.4943 O.3         1 MOL      -0.3407
     12 OR6        14.3520   20.7595   33.8517 O.3         1 MOL      -0.3924
     13 CV1        13.7150   15.9590   33.8916 C.3         1 MOL       0.1886
     14 CV2        12.4621   15.6923   34.7689 C.3         1 MOL       0.1370
     15 CV3        12.8492   15.6446   36.2709 C.3         1 MOL       0.1304
     16 CV4        14.0427   14.6801   36.5421 C.3         1 MOL       0.0334
     17 CV5        15.1950   14.8487   35.4968 C.3         1 MOL       0.1038
     18 CV6        16.2020   13.6729   35.5234 C.3         1 MOL      -0.0332
     19 OV2        11.4744   16.6944   34.5420 O.3         1 MOL      -0.3840
     20 OV3        11.7138   15.2563   37.0457 O.3         1 MOL      -0.3834
     21 NV4        14.4606   14.6723   37.9802 N.4         1 MOL       0.2370
     22 OV5        14.6857   14.9238   34.1416 O.3         1 MOL      -0.3401
     23 CQ1        12.7083   17.7025   42.7939 C.3         1 MOL       0.1883
     24 CQ2        12.2269   17.2739   44.2071 C.3         1 MOL       0.1341
     25 CQ3        10.9161   16.4433   44.1199 C.3         1 MOL       0.1144
     26 CQ4         9.8140   17.1551   43.2759 C.3         1 MOL       0.1184
     27 CQ5        10.4179   17.5954   41.9010 C.3         1 MOL       0.1134
     28 CQ6         9.4762   18.4640   41.0099 C.3         1 MOL       0.0730
     29 OQ2        13.2462   16.5391   44.8809 O.3         1 MOL      -0.3841
     30 OQ3        10.4322   16.1445   45.4319 O.3         1 MOL      -0.3864
     31 OQ4         8.7469   16.1897   43.1093 O.3         1 MOL      -0.3401
     32 OQ5        11.6240   18.3700   42.1196 O.3         1 MOL      -0.3405
     33 OQ6         9.2562   17.8702   39.7330 O.3         1 MOL      -0.3924
     34 CW1         7.3654   16.5706   43.3313 C.3         1 MOL       0.1884
     35 CW2         6.5571   15.3655   43.8835 C.3         1 MOL       0.1341
     36 CW3         6.3553   14.2728   42.7993 C.3         1 MOL       0.1141
     37 CW4         5.7950   14.8776   41.4832 C.3         1 MOL       0.1119
     38 CW5         6.6165   16.1234   41.0419 C.3         1 MOL       0.1130
     39 CW6         5.9657   16.8539   39.8356 C.3         1 MOL       0.0730
     40 OW2         7.1914   14.8162   45.0403 O.3         1 MOL      -0.3841
     41 OW3         5.4464   13.2892   43.2901 O.3         1 MOL      -0.3864
     42 OW4         5.7885   13.8855   40.4549 O.3         1 MOL      -0.3865
     43 OW5         6.7444   17.0697   42.1277 O.3         1 MOL      -0.3405
     44 OW6         4.6479   17.3038   40.1309 O.3         1 MOL      -0.3924
     45 CY1        15.5118   15.5766   38.5540 C.3         1 MOL       0.0073
     46 CY2        15.9444   15.0459   39.9547 C.3         1 MOL       0.1257
     47 OY2        16.3657   13.6880   39.8377 O.3         1 MOL      -0.3835
     48 CY3        14.8092   15.1957   41.0078 C.3         1 MOL       0.1127
     49 OY3        15.2797   14.7824   42.2954 O.3         1 MOL      -0.3864
     50 CY4        14.2924   16.6649   41.1285 C.3         1 MOL       0.0953
     51 OY4        13.1603   16.5623   42.0279 O.3         1 MOL      -0.3424
     52 CY5        13.9511   17.3048   39.7322 C.3         1 MOL       0.0162
     53 CY6        15.1230   17.0704   38.7197 C.3         1 MOL       0.0002
     54 CY7        13.6161   18.8336   39.8051 C.3         1 MOL       0.0497
     55 OY7        12.2051   19.0574   39.8351 O.3         1 MOL      -0.3946
     56 H1         17.0882   19.4638   30.2527 H           1 MOL       0.0935
     57 H2         17.8333   18.4000   32.2911 H           1 MOL       0.0671
     58 H3         15.6684   16.2754   31.8911 H           1 MOL       0.0648
     59 H4         15.8185   18.5258   33.9433 H           1 MOL       0.0651
     60 H5         13.8512   18.2657   31.6251 H           1 MOL       0.0647
     61 H6         12.8300   19.4013   33.5926 H           1 MOL       0.0584
     62 H7         13.0945   20.5179   32.2493 H           1 MOL       0.0584
     63 H8         16.3860   17.6950   29.1210 H           1 MOL       0.2126
     64 H9         18.7480   17.5127   30.5471 H           1 MOL       0.2101
     65 H10        17.4332   15.5117   32.9211 H           1 MOL       0.2100
     66 H11        13.6765   21.2972   34.3212 H           1 MOL       0.2095
     67 H12        13.4073   15.8957   32.8448 H           1 MOL       0.0938
     68 H13        12.0359   14.7268   34.4826 H           1 MOL       0.0672
     69 H14        13.1061   16.6555   36.5733 H           1 MOL       0.0679
     70 H15        13.6338   13.6776   36.3691 H           1 MOL       0.0903
     71 H16        15.7476   15.7702   35.7170 H           1 MOL       0.0652
     72 H17        16.9992   13.8491   34.7965 H           1 MOL       0.0257
     73 H18        15.6993   12.7354   35.2625 H           1 MOL       0.0257
     74 H19        16.6538   13.5663   36.5131 H           1 MOL       0.0257
     75 H20        11.1543   16.5399   33.6280 H           1 MOL       0.2101
     76 H21        11.4931   14.3490   36.7477 H           1 MOL       0.2102
     77 H22        14.7896   13.7216   38.1538 H           1 MOL       0.2022
     78 H23        13.6109   14.7950   38.5333 H           1 MOL       0.2022
     79 H24        13.5147   18.4255   42.9350 H           1 MOL       0.0938
     80 H25        12.0314   18.1817   44.7887 H           1 MOL       0.0671
     81 H26        11.1505   15.4876   43.6429 H           1 MOL       0.0648
     82 H27         9.4933   18.0435   43.8258 H           1 MOL       0.0651
     83 H28        10.6770   16.6924   41.3364 H           1 MOL       0.0647
     84 H29         9.9000   19.4554   40.8337 H           1 MOL       0.0584
     85 H30         8.5067   18.6127   41.4856 H           1 MOL       0.0584
     86 H31        12.9905   16.5486   45.8307 H           1 MOL       0.2101
     87 H32        10.8835   16.7774   46.0321 H           1 MOL       0.2100
     88 H33        10.0559   18.0811   39.2049 H           1 MOL       0.2095
     89 H34         7.3015   17.3619   44.0827 H           1 MOL       0.0938
     90 H35         5.5759   15.7289   44.1978 H           1 MOL       0.0671
     91 H36         7.3167   13.7889   42.6012 H           1 MOL       0.0648
     92 H37         4.7572   15.1734   41.6608 H           1 MOL       0.0647
     93 H38         7.6169   15.7969   40.7271 H           1 MOL       0.0647
     94 H39         5.9211   16.1881   38.9705 H           1 MOL       0.0584
     95 H40         6.5658   17.7209   39.5625 H           1 MOL       0.0584
     96 H41         8.0394   14.4407   44.7251 H           1 MOL       0.2101
     97 H42         5.5240   12.5383   42.6644 H           1 MOL       0.2100
     98 H43         6.7178   13.5789   40.3782 H           1 MOL       0.2100
     99 H44         4.7188   17.7508   41.0040 H           1 MOL       0.2095
    100 H45        16.3998   15.5274   37.9138 H           1 MOL       0.0877
    101 H46        16.8136   15.6241   40.2952 H           1 MOL       0.0677
    102 H47        17.2455   13.6618   40.2608 H           1 MOL       0.2102
    103 H48        13.9752   14.5410   40.7281 H           1 MOL       0.0647
    104 H49        15.9821   14.1260   42.1200 H           1 MOL       0.2100
    105 H50        15.0967   17.2448   41.5926 H           1 MOL       0.0627
    106 H51        13.0740   16.7837   39.3328 H           1 MOL       0.0351
    107 H52        14.8946   17.4936   37.7406 H           1 MOL       0.0325
    108 H53        16.0058   17.6065   39.0840 H           1 MOL       0.0325
    109 H54        14.0172   19.3898   38.9465 H           1 MOL       0.0561
    110 H55        14.0525   19.2788   40.7014 H           1 MOL       0.0561
    111 H56        11.9661   19.3239   38.9144 H           1 MOL       0.2094
@<TRIPOS>BOND
     1     2     1   1
     2     1     7   1
     3    11     1   1
     4     3     2   1
     5     2     8   1
     6     4     3   1
     7     3     9   1
     8     4     5   1
     9    10     4   1
    10     5     6   1
    11     5    11   1
    12     6    12   1
    13    13    10   1
    14    14    13   1
    15    22    13   1
    16    15    14   1
    17    14    19   1
    18    16    15   1
    19    15    20   1
    20    16    17   1
    21    21    16   1
    22    17    18   1
    23    17    22   1
    24    45    21   1
    25    23    24   1
    26    23    32   1
    27    51    23   1
    28    24    25   1
    29    24    29   1
    30    25    26   1
    31    25    30   1
    32    27    26   1
    33    26    31   1
    34    27    28   1
    35    32    27   1
    36    28    33   1
    37    31    34   1
    38    34    35   1
    39    34    43   1
    40    35    36   1
    41    35    40   1
    42    36    37   1
    43    36    41   1
    44    38    37   1
    45    37    42   1
    46    38    39   1
    47    43    38   1
    48    39    44   1
    49    46    45   1
    50    45    53   1
    51    46    47   1
    52    48    46   1
    53    48    49   1
    54    50    48   1
    55    50    51   1
    56    50    52   1
    57    52    53   1
    58    52    54   1
    59    54    55   1
    60     1    56   1
    61     2    57   1
    62     3    58   1
    63     4    59   1
    64     5    60   1
    65     6    61   1
    66     6    62   1
    67     7    63   1
    68     8    64   1
    69     9    65   1
    70    12    66   1
    71    13    67   1
    72    14    68   1
    73    15    69   1
    74    16    70   1
    75    17    71   1
    76    18    72   1
    77    18    73   1
    78    18    74   1
    79    19    75   1
    80    20    76   1
    81    21    77   1
    82    21    78   1
    83    23    79   1
    84    24    80   1
    85    25    81   1
    86    26    82   1
    87    27    83   1
    88    28    84   1
    89    28    85   1
    90    29    86   1
    91    30    87   1
    92    33    88   1
    93    34    89   1
    94    35    90   1
    95    36    91   1
    96    37    92   1
    97    38    93   1
    98    39    94   1
    99    39    95   1
   100    40    96   1
   101    41    97   1
   102    42    98   1
   103    44    99   1
   104    45   100   1
   105    46   101   1
   106    47   102   1
   107    48   103   1
   108    49   104   1
   109    50   105   1
   110    52   106   1
   111    53   107   1
   112    53   108   1
   113    54   109   1
   114    54   110   1
   115    55   111   1
@<TRIPOS>SUBSTRUCTURE
     1  MOL      1

