@<TRIPOS>MOLECULE
1xd0_ligand_036
   111   115
SMALL
GAST_HUCK
****
This file was generated by PARSER (from files_GN.cpp)

@<TRIPOS>ATOM
      1 CR1        15.7313   15.7574   38.3217 C.3         1 MOL       0.1854
      2 CR2        16.1127   16.5584   39.5866 C.3         1 MOL       0.1339
      3 CR3        14.9333   16.5917   40.5881 C.3         1 MOL       0.1144
      4 CR4        13.6349   17.1406   39.9209 C.3         1 MOL       0.1184
      5 CR5        13.3795   16.3949   38.5632 C.3         1 MOL       0.1134
      6 CR6        12.2538   17.0659   37.7359 C.3         1 MOL       0.0730
      7 OR1        15.5807   14.3624   38.5742 O.3         1 MOL      -0.3649
      8 OR2        17.2821   16.0200   40.1999 O.3         1 MOL      -0.3841
      9 OR3        15.3456   17.3895   41.6924 O.3         1 MOL      -0.3864
     10 OR4        12.4412   16.9540   40.7066 O.3         1 MOL      -0.3401
     11 OR5        14.5607   16.3433   37.7244 O.3         1 MOL      -0.3407
     12 OR6        11.1607   17.4750   38.5547 O.3         1 MOL      -0.3924
     13 CV1        12.3961   17.2436   42.1176 C.3         1 MOL       0.1886
     14 CV2        12.2826   15.8856   42.8675 C.3         1 MOL       0.1370
     15 CV3        11.8620   16.0891   44.3544 C.3         1 MOL       0.1304
     16 CV4        10.6686   17.0808   44.5641 C.3         1 MOL       0.0334
     17 CV5        10.9026   18.3812   43.7179 C.3         1 MOL       0.1038
     18 CV6        11.8813   19.4124   44.3486 C.3         1 MOL      -0.0332
     19 OV2        11.3762   14.9910   42.2266 O.3         1 MOL      -0.3840
     20 OV3        13.0297   16.5481   45.0367 O.3         1 MOL      -0.3834
     21 NV4         9.2766   16.6188   44.2159 N.4         1 MOL       0.2370
     22 OV5        11.2384   18.0648   42.3400 O.3         1 MOL      -0.3401
     23 CQ1         4.0182   15.5912   41.9760 C.3         1 MOL       0.1883
     24 CQ2         2.5722   16.1513   41.9310 C.3         1 MOL       0.1341
     25 CQ3         2.0991   16.2720   40.4500 C.3         1 MOL       0.1144
     26 CQ4         2.3043   14.9504   39.6407 C.3         1 MOL       0.1184
     27 CQ5         3.6612   14.2501   39.9442 C.3         1 MOL       0.1134
     28 CQ6         4.8523   14.7452   39.0681 C.3         1 MOL       0.0730
     29 OQ2         1.7168   15.2917   42.6959 O.3         1 MOL      -0.3841
     30 OQ3         2.7976   17.3419   39.8095 O.3         1 MOL      -0.3864
     31 OQ4         1.1360   14.1209   39.8809 O.3         1 MOL      -0.3401
     32 OQ5         3.9904   14.2834   41.3468 O.3         1 MOL      -0.3405
     33 OQ6         4.5562   14.7090   37.6779 O.3         1 MOL      -0.3924
     34 CW1         0.8357   12.9174   39.1283 C.3         1 MOL       0.1884
     35 CW2         1.2572   12.8320   37.6252 C.3         1 MOL       0.1341
     36 CW3         0.5362   13.9402   36.8064 C.3         1 MOL       0.1141
     37 CW4        -1.0025   13.8419   36.9795 C.3         1 MOL       0.1119
     38 CW5        -1.4018   13.6969   38.4831 C.3         1 MOL       0.1130
     39 CW6        -2.9176   13.3413   38.6085 C.3         1 MOL       0.0730
     40 OW2         2.6667   12.8920   37.4279 O.3         1 MOL      -0.3841
     41 OW3         0.8882   13.8299   35.4251 O.3         1 MOL      -0.3864
     42 OW4        -1.6129   14.9906   36.3851 O.3         1 MOL      -0.3865
     43 OW5        -0.5967   12.6969   39.1725 O.3         1 MOL      -0.3405
     44 OW6        -3.1768   12.2966   39.5413 O.3         1 MOL      -0.3924
     45 CY1         8.7603   15.2682   44.5621 C.3         1 MOL       0.0073
     46 CY2         8.2767   14.5089   43.2980 C.3         1 MOL       0.1257
     47 OY2         9.2350   14.6217   42.2533 O.3         1 MOL      -0.3835
     48 CY3         6.9322   15.0202   42.7308 C.3         1 MOL       0.1127
     49 OY3         6.6170   14.1457   41.6467 O.3         1 MOL      -0.3864
     50 CY4         5.7720   15.0325   43.7865 C.3         1 MOL       0.0953
     51 OY4         4.4769   15.5539   43.3470 O.3         1 MOL      -0.3424
     52 CY5         6.2309   15.8255   45.0534 C.3         1 MOL       0.0162
     53 CY6         7.6043   15.2978   45.6117 C.3         1 MOL       0.0002
     54 CY7         5.1497   15.8331   46.1788 C.3         1 MOL       0.0497
     55 OY7         5.4695   14.9214   47.2413 O.3         1 MOL      -0.3946
     56 H1         16.5389   15.8480   37.6033 H           1 MOL       0.0935
     57 H2         16.3419   17.5853   39.2866 H           1 MOL       0.0671
     58 H3         14.7345   15.5854   40.9700 H           1 MOL       0.0648
     59 H4         13.7706   18.2049   39.7130 H           1 MOL       0.0651
     60 H5         13.0616   15.3616   38.7719 H           1 MOL       0.0647
     61 H6         11.8747   16.3622   36.9914 H           1 MOL       0.0584
     62 H7         12.6591   17.9393   37.2191 H           1 MOL       0.0584
     63 H8         14.8667   14.2785   39.2372 H           1 MOL       0.2126
     64 H9         17.5544   16.7106   40.8437 H           1 MOL       0.2101
     65 H10        15.4319   18.3036   41.3461 H           1 MOL       0.2100
     66 H11        10.9219   18.3500   38.2000 H           1 MOL       0.2095
     67 H12        13.2595   17.8046   42.4740 H           1 MOL       0.0938
     68 H13        13.2534   15.3632   42.8593 H           1 MOL       0.0672
     69 H14        11.6206   15.1127   44.7867 H           1 MOL       0.0679
     70 H15        10.6300   17.3603   45.6285 H           1 MOL       0.0903
     71 H16         9.9585   18.9181   43.6386 H           1 MOL       0.0652
     72 H17        11.9436   20.2917   43.7096 H           1 MOL       0.0257
     73 H18        12.8845   19.0019   44.4625 H           1 MOL       0.0257
     74 H19        11.5174   19.7227   45.3316 H           1 MOL       0.0257
     75 H20        11.7984   14.7504   41.3897 H           1 MOL       0.2101
     76 H21        12.7898   16.5903   45.9790 H           1 MOL       0.2102
     77 H22         9.1637   16.7546   43.2028 H           1 MOL       0.2022
     78 H23         8.6434   17.2947   44.6720 H           1 MOL       0.2022
     79 H24         4.6724   16.2893   41.4434 H           1 MOL       0.0938
     80 H25         2.5503   17.1377   42.3978 H           1 MOL       0.0671
     81 H26         1.0417   16.5483   40.4469 H           1 MOL       0.0648
     82 H27         2.2911   15.2536   38.5976 H           1 MOL       0.0651
     83 H28         3.5548   13.1959   39.7043 H           1 MOL       0.0647
     84 H29         5.7140   14.0923   39.2237 H           1 MOL       0.0584
     85 H30         5.1357   15.7601   39.3220 H           1 MOL       0.0584
     86 H31         0.8318   15.7126   42.6580 H           1 MOL       0.2101
     87 H32         2.6005   18.1327   40.3488 H           1 MOL       0.2100
     88 H33         5.3656   15.0293   37.2383 H           1 MOL       0.2095
     89 H34         1.2914   12.0737   39.6461 H           1 MOL       0.0938
     90 H35         0.9372   11.8611   37.2311 H           1 MOL       0.0671
     91 H36         0.8488   14.9273   37.1233 H           1 MOL       0.0648
     92 H37        -1.3262   12.9494   36.4412 H           1 MOL       0.0647
     93 H38        -1.2528   14.6657   38.9816 H           1 MOL       0.0647
     94 H39        -3.3305   13.0150   37.6465 H           1 MOL       0.0584
     95 H40        -3.4756   14.2314   38.9282 H           1 MOL       0.0584
     96 H41         3.0093   12.0552   37.8007 H           1 MOL       0.2101
     97 H42         0.6061   12.9321   35.1600 H           1 MOL       0.2100
     98 H43        -2.5531   14.7621   36.3050 H           1 MOL       0.2100
     99 H44        -2.7200   12.5686   40.3619 H           1 MOL       0.2095
    100 H45         9.5598   14.6774   45.0054 H           1 MOL       0.0877
    101 H46         8.1652   13.4522   43.5616 H           1 MOL       0.0677
    102 H47         8.9126   14.1008   41.4903 H           1 MOL       0.2102
    103 H48         7.0822   16.0323   42.3301 H           1 MOL       0.0647
    104 H49         6.3268   13.3107   42.0695 H           1 MOL       0.2100
    105 H50         5.5853   13.9986   44.0739 H           1 MOL       0.0627
    106 H51         6.3658   16.8619   44.7535 H           1 MOL       0.0351
    107 H52         7.9124   15.9071   46.4657 H           1 MOL       0.0325
    108 H53         7.4655   14.2685   45.9793 H           1 MOL       0.0325
    109 H54         4.1605   15.5659   45.7894 H           1 MOL       0.0561
    110 H55         5.0684   16.8404   46.6025 H           1 MOL       0.0561
    111 H56         5.3544   15.4462   48.0691 H           1 MOL       0.2094
@<TRIPOS>BOND
     1     2     1   1
     2     1     7   1
     3    11     1   1
     4     3     2   1
     5     2     8   1
     6     4     3   1
     7     3     9   1
     8     4     5   1
     9    10     4   1
    10     5     6   1
    11     5    11   1
    12     6    12   1
    13    13    10   1
    14    14    13   1
    15    22    13   1
    16    15    14   1
    17    14    19   1
    18    16    15   1
    19    15    20   1
    20    16    17   1
    21    21    16   1
    22    17    18   1
    23    17    22   1
    24    45    21   1
    25    23    24   1
    26    23    32   1
    27    51    23   1
    28    24    25   1
    29    24    29   1
    30    25    26   1
    31    25    30   1
    32    27    26   1
    33    26    31   1
    34    27    28   1
    35    32    27   1
    36    28    33   1
    37    31    34   1
    38    34    35   1
    39    34    43   1
    40    35    36   1
    41    35    40   1
    42    36    37   1
    43    36    41   1
    44    38    37   1
    45    37    42   1
    46    38    39   1
    47    43    38   1
    48    39    44   1
    49    46    45   1
    50    45    53   1
    51    46    47   1
    52    48    46   1
    53    48    49   1
    54    50    48   1
    55    50    51   1
    56    50    52   1
    57    52    53   1
    58    52    54   1
    59    54    55   1
    60     1    56   1
    61     2    57   1
    62     3    58   1
    63     4    59   1
    64     5    60   1
    65     6    61   1
    66     6    62   1
    67     7    63   1
    68     8    64   1
    69     9    65   1
    70    12    66   1
    71    13    67   1
    72    14    68   1
    73    15    69   1
    74    16    70   1
    75    17    71   1
    76    18    72   1
    77    18    73   1
    78    18    74   1
    79    19    75   1
    80    20    76   1
    81    21    77   1
    82    21    78   1
    83    23    79   1
    84    24    80   1
    85    25    81   1
    86    26    82   1
    87    27    83   1
    88    28    84   1
    89    28    85   1
    90    29    86   1
    91    30    87   1
    92    33    88   1
    93    34    89   1
    94    35    90   1
    95    36    91   1
    96    37    92   1
    97    38    93   1
    98    39    94   1
    99    39    95   1
   100    40    96   1
   101    41    97   1
   102    42    98   1
   103    44    99   1
   104    45   100   1
   105    46   101   1
   106    47   102   1
   107    48   103   1
   108    49   104   1
   109    50   105   1
   110    52   106   1
   111    53   107   1
   112    53   108   1
   113    54   109   1
   114    54   110   1
   115    55   111   1
@<TRIPOS>SUBSTRUCTURE
     1  MOL      1

