@<TRIPOS>MOLECULE
1xd0_ligand_060
   111   115
SMALL
GAST_HUCK
****
This file was generated by PARSER (from files_GN.cpp)

@<TRIPOS>ATOM
      1 CR1        12.0486   15.5893   38.9187 C.3         1 MOL       0.1854
      2 CR2        13.1396   14.8998   39.7785 C.3         1 MOL       0.1339
      3 CR3        14.1286   15.9574   40.3443 C.3         1 MOL       0.1144
      4 CR4        13.3834   17.1316   41.0391 C.3         1 MOL       0.1184
      5 CR5        12.2602   17.7290   40.1316 C.3         1 MOL       0.1134
      6 CR6        12.7067   18.7172   39.0048 C.3         1 MOL       0.0730
      7 OR1        11.0505   14.6548   38.5174 O.3         1 MOL      -0.3649
      8 OR2        12.5538   14.1560   40.8479 O.3         1 MOL      -0.3841
      9 OR3        14.9725   16.4504   39.3054 O.3         1 MOL      -0.3864
     10 OR4        12.7608   16.5922   42.2219 O.3         1 MOL      -0.3401
     11 OR5        11.4007   16.6731   39.6230 O.3         1 MOL      -0.3407
     12 OR6        14.1072   18.9875   38.9724 O.3         1 MOL      -0.3924
     13 CV1        13.1976   17.0151   43.5307 C.3         1 MOL       0.1886
     14 CV2        13.0822   15.8301   44.5088 C.3         1 MOL       0.1370
     15 CV3        11.5997   15.3937   44.6488 C.3         1 MOL       0.1304
     16 CV4        10.6119   16.5719   44.9754 C.3         1 MOL       0.0334
     17 CV5        10.9915   17.8622   44.1628 C.3         1 MOL       0.1038
     18 CV6        10.4110   19.1484   44.7980 C.3         1 MOL      -0.0332
     19 OV2        13.8738   14.7316   44.0504 O.3         1 MOL      -0.3840
     20 OV3        11.5703   14.3841   45.6565 O.3         1 MOL      -0.3834
     21 NV4         9.1333   16.3483   44.7726 N.4         1 MOL       0.2370
     22 OV5        12.4129   18.1037   44.0425 O.3         1 MOL      -0.3401
     23 CQ1         3.8573   15.5608   41.9434 C.3         1 MOL       0.1883
     24 CQ2         4.2887   16.4133   40.7209 C.3         1 MOL       0.1341
     25 CQ3         3.5185   15.9513   39.4522 C.3         1 MOL       0.1144
     26 CQ4         1.9727   15.9268   39.6697 C.3         1 MOL       0.1184
     27 CQ5         1.5629   15.3434   41.0723 C.3         1 MOL       0.1134
     28 CQ6         1.3797   13.7992   41.0706 C.3         1 MOL       0.0730
     29 OQ2         4.0313   17.7981   40.9610 O.3         1 MOL      -0.3841
     30 OQ3         4.0171   14.6919   38.9948 O.3         1 MOL      -0.3864
     31 OQ4         1.5361   17.2898   39.4590 O.3         1 MOL      -0.3401
     32 OQ5         2.4440   15.7679   42.1454 O.3         1 MOL      -0.3405
     33 OQ6         0.4798   13.3814   40.0447 O.3         1 MOL      -0.3924
     34 CW1         0.1733   17.6980   39.1944 C.3         1 MOL       0.1884
     35 CW2        -0.6994   16.8383   38.2292 C.3         1 MOL       0.1341
     36 CW3        -0.0575   16.7983   36.8215 C.3         1 MOL       0.1141
     37 CW4         0.1514   18.2428   36.2802 C.3         1 MOL       0.1119
     38 CW5         0.8581   19.1530   37.3343 C.3         1 MOL       0.1130
     39 CW6         0.8444   20.6518   36.9371 C.3         1 MOL       0.0730
     40 OW2        -0.9073   15.5236   38.7323 O.3         1 MOL      -0.3841
     41 OW3        -0.8965   16.0524   35.9403 O.3         1 MOL      -0.3864
     42 OW4         0.9265   18.1932   35.0807 O.3         1 MOL      -0.3865
     43 OW5         0.2330   19.0358   38.6410 O.3         1 MOL      -0.3405
     44 OW6         1.2950   20.8618   35.6046 O.3         1 MOL      -0.3924
     45 CY1         8.4865   14.9991   44.8143 C.3         1 MOL       0.0073
     46 CY2         8.1243   14.4534   43.3973 C.3         1 MOL       0.1257
     47 OY2         9.2246   14.5790   42.4984 O.3         1 MOL      -0.3835
     48 CY3         6.8873   15.1397   42.7538 C.3         1 MOL       0.1127
     49 OY3         6.6107   14.4395   41.5365 O.3         1 MOL      -0.3864
     50 CY4         5.6327   15.1696   43.6814 C.3         1 MOL       0.0953
     51 OY4         4.5673   15.9894   43.1276 O.3         1 MOL      -0.3424
     52 CY5         5.9855   15.7454   45.0964 C.3         1 MOL       0.0162
     53 CY6         7.2197   15.0134   45.7148 C.3         1 MOL       0.0002
     54 CY7         4.7729   15.6755   46.0704 C.3         1 MOL       0.0497
     55 OY7         4.7813   16.7410   47.0194 O.3         1 MOL      -0.3946
     56 H1         12.5029   15.9585   37.9977 H           1 MOL       0.0935
     57 H2         13.6961   14.1920   39.1604 H           1 MOL       0.0671
     58 H3         14.7800   15.4787   41.0795 H           1 MOL       0.0648
     59 H4         14.1003   17.9205   41.2946 H           1 MOL       0.0651
     60 H5         11.6227   18.3206   40.7981 H           1 MOL       0.0647
     61 H6         12.1996   19.6779   39.1436 H           1 MOL       0.0584
     62 H7         12.4246   18.3436   38.0186 H           1 MOL       0.0584
     63 H8         10.5271   14.4627   39.3235 H           1 MOL       0.2126
     64 H9         12.3123   13.2913   40.4552 H           1 MOL       0.2101
     65 H10        15.5109   15.6812   39.0243 H           1 MOL       0.2100
     66 H11        14.1973   19.7776   38.3970 H           1 MOL       0.2095
     67 H12        14.2433   17.3307   43.5158 H           1 MOL       0.0938
     68 H13        13.4704   16.1439   45.4830 H           1 MOL       0.0672
     69 H14        11.3049   14.9318   43.7115 H           1 MOL       0.0679
     70 H15        10.7487   16.7855   46.0384 H           1 MOL       0.0903
     71 H16        10.5813   17.7807   43.1517 H           1 MOL       0.0652
     72 H17        10.6645   20.0170   44.1872 H           1 MOL       0.0257
     73 H18        10.8351   19.2925   45.7929 H           1 MOL       0.0257
     74 H19         9.3239   19.0895   44.8790 H           1 MOL       0.0257
     75 H20        14.8032   14.9620   44.2684 H           1 MOL       0.2101
     76 H21        12.0715   14.7653   46.4092 H           1 MOL       0.2102
     77 H22         8.8854   16.7485   43.8663 H           1 MOL       0.2022
     78 H23         8.6624   16.9275   45.4822 H           1 MOL       0.2022
     79 H24         4.0394   14.4982   41.7649 H           1 MOL       0.0938
     80 H25         5.3589   16.3138   40.5345 H           1 MOL       0.0671
     81 H26         3.7534   16.6494   38.6416 H           1 MOL       0.0648
     82 H27         1.5368   15.3156   38.8741 H           1 MOL       0.0651
     83 H28         0.5882   15.7537   41.3360 H           1 MOL       0.0647
     84 H29         0.9841   13.4559   42.0296 H           1 MOL       0.0584
     85 H30         2.3279   13.2876   40.8993 H           1 MOL       0.0584
     86 H31         4.7833   18.1119   41.5013 H           1 MOL       0.2101
     87 H32         3.8080   14.0381   39.6907 H           1 MOL       0.2100
     88 H33        -0.4003   13.3448   40.4742 H           1 MOL       0.2095
     89 H34        -0.3498   17.7706   40.1510 H           1 MOL       0.0938
     90 H35        -1.6821   17.3080   38.1470 H           1 MOL       0.0671
     91 H36         0.9076   16.2890   36.8723 H           1 MOL       0.0648
     92 H37        -0.8245   18.6742   36.0388 H           1 MOL       0.0647
     93 H38         1.9060   18.8460   37.4234 H           1 MOL       0.0647
     94 H39         1.5063   21.2061   37.6004 H           1 MOL       0.0584
     95 H40        -0.1655   21.0521   37.0361 H           1 MOL       0.0584
     96 H41        -1.4327   15.6456   39.5654 H           1 MOL       0.2101
     97 H42        -0.3330   15.8289   35.1704 H           1 MOL       0.2100
     98 H43         0.3080   17.9035   34.3780 H           1 MOL       0.2100
     99 H44         1.2011   21.8290   35.4551 H           1 MOL       0.2095
    100 H45         9.1655   14.2855   45.2794 H           1 MOL       0.0877
    101 H46         7.9081   13.3862   43.4966 H           1 MOL       0.0677
    102 H47         8.9392   14.1503   41.6647 H           1 MOL       0.2102
    103 H48         7.1537   16.1677   42.4908 H           1 MOL       0.0647
    104 H49         6.3057   13.5403   41.7897 H           1 MOL       0.2100
    105 H50         5.2711   14.1437   43.8157 H           1 MOL       0.0627
    106 H51         6.2462   16.8013   44.9647 H           1 MOL       0.0351
    107 H52         7.4829   15.4723   46.6702 H           1 MOL       0.0325
    108 H53         6.9371   13.9789   45.9300 H           1 MOL       0.0325
    109 H54         4.7597   14.7259   46.6099 H           1 MOL       0.0561
    110 H55         3.8369   15.7517   45.5184 H           1 MOL       0.0561
    111 H56         5.4828   16.5191   47.6669 H           1 MOL       0.2094
@<TRIPOS>BOND
     1     2     1   1
     2     1     7   1
     3    11     1   1
     4     3     2   1
     5     2     8   1
     6     4     3   1
     7     3     9   1
     8     4     5   1
     9    10     4   1
    10     5     6   1
    11     5    11   1
    12     6    12   1
    13    13    10   1
    14    14    13   1
    15    22    13   1
    16    15    14   1
    17    14    19   1
    18    16    15   1
    19    15    20   1
    20    16    17   1
    21    21    16   1
    22    17    18   1
    23    17    22   1
    24    45    21   1
    25    23    24   1
    26    23    32   1
    27    51    23   1
    28    24    25   1
    29    24    29   1
    30    25    26   1
    31    25    30   1
    32    27    26   1
    33    26    31   1
    34    27    28   1
    35    32    27   1
    36    28    33   1
    37    31    34   1
    38    34    35   1
    39    34    43   1
    40    35    36   1
    41    35    40   1
    42    36    37   1
    43    36    41   1
    44    38    37   1
    45    37    42   1
    46    38    39   1
    47    43    38   1
    48    39    44   1
    49    46    45   1
    50    45    53   1
    51    46    47   1
    52    48    46   1
    53    48    49   1
    54    50    48   1
    55    50    51   1
    56    50    52   1
    57    52    53   1
    58    52    54   1
    59    54    55   1
    60     1    56   1
    61     2    57   1
    62     3    58   1
    63     4    59   1
    64     5    60   1
    65     6    61   1
    66     6    62   1
    67     7    63   1
    68     8    64   1
    69     9    65   1
    70    12    66   1
    71    13    67   1
    72    14    68   1
    73    15    69   1
    74    16    70   1
    75    17    71   1
    76    18    72   1
    77    18    73   1
    78    18    74   1
    79    19    75   1
    80    20    76   1
    81    21    77   1
    82    21    78   1
    83    23    79   1
    84    24    80   1
    85    25    81   1
    86    26    82   1
    87    27    83   1
    88    28    84   1
    89    28    85   1
    90    29    86   1
    91    30    87   1
    92    33    88   1
    93    34    89   1
    94    35    90   1
    95    36    91   1
    96    37    92   1
    97    38    93   1
    98    39    94   1
    99    39    95   1
   100    40    96   1
   101    41    97   1
   102    42    98   1
   103    44    99   1
   104    45   100   1
   105    46   101   1
   106    47   102   1
   107    48   103   1
   108    49   104   1
   109    50   105   1
   110    52   106   1
   111    53   107   1
   112    53   108   1
   113    54   109   1
   114    54   110   1
   115    55   111   1
@<TRIPOS>SUBSTRUCTURE
     1  MOL      1

