@<TRIPOS>MOLECULE
1xd0_ligand_012
   111   115
SMALL
GAST_HUCK
****
This file was generated by PARSER (from files_GN.cpp)

@<TRIPOS>ATOM
      1 CR1         2.3952   14.0315   39.3544 C.3         1 MOL       0.1854
      2 CR2         3.8581   14.0565   38.8658 C.3         1 MOL       0.1339
      3 CR3         4.7812   14.6815   39.9671 C.3         1 MOL       0.1144
      4 CR4         4.2552   16.0401   40.5364 C.3         1 MOL       0.1184
      5 CR5         2.7165   15.9635   40.8127 C.3         1 MOL       0.1134
      6 CR6         2.0827   17.3531   41.0436 C.3         1 MOL       0.0730
      7 OR1         2.2109   13.0966   40.4263 O.3         1 MOL      -0.3649
      8 OR2         4.2973   12.7392   38.5624 O.3         1 MOL      -0.3841
      9 OR3         6.0636   14.8761   39.3695 O.3         1 MOL      -0.3864
     10 OR4         4.8489   16.4779   41.7947 O.3         1 MOL      -0.3401
     11 OR5         1.9806   15.3567   39.7219 O.3         1 MOL      -0.3407
     12 OR6         0.6790   17.2383   41.2686 O.3         1 MOL      -0.3924
     13 CV1         6.2089   16.2051   42.1540 C.3         1 MOL       0.1886
     14 CV2         6.3317   16.1018   43.6952 C.3         1 MOL       0.1370
     15 CV3         7.7559   15.6174   44.0707 C.3         1 MOL       0.1304
     16 CV4         8.8780   16.4855   43.4067 C.3         1 MOL       0.0334
     17 CV5         8.5429   16.9318   41.9255 C.3         1 MOL       0.1038
     18 CV6         9.0650   15.9643   40.8319 C.3         1 MOL      -0.0332
     19 OV2         6.0714   17.3791   44.2871 O.3         1 MOL      -0.3840
     20 OV3         7.9189   14.2538   43.6818 O.3         1 MOL      -0.3834
     21 NV4         9.2185   17.6675   44.2732 N.4         1 MOL       0.2370
     22 OV5         7.1272   17.2126   41.6948 O.3         1 MOL      -0.3401
     23 CQ1        13.6463   17.8630   40.5323 C.3         1 MOL       0.1883
     24 CQ2        13.1183   17.5398   39.1098 C.3         1 MOL       0.1341
     25 CQ3        13.3560   16.0441   38.7605 C.3         1 MOL       0.1144
     26 CQ4        14.8564   15.6647   38.9614 C.3         1 MOL       0.1184
     27 CQ5        15.3014   16.0769   40.3979 C.3         1 MOL       0.1134
     28 CQ6        16.8058   15.7973   40.6537 C.3         1 MOL       0.0730
     29 OQ2        11.7258   17.8426   39.0004 O.3         1 MOL      -0.3841
     30 OQ3        12.9617   15.8181   37.4062 O.3         1 MOL      -0.3864
     31 OQ4        15.1452   14.2523   38.8311 O.3         1 MOL      -0.3401
     32 OQ5        15.0326   17.4749   40.6564 O.3         1 MOL      -0.3405
     33 OQ6        17.1329   15.9932   42.0258 O.3         1 MOL      -0.3924
     34 CW1        14.9422   13.5482   37.5903 C.3         1 MOL       0.1884
     35 CW2        15.7146   12.1996   37.6206 C.3         1 MOL       0.1341
     36 CW3        17.2443   12.4451   37.5383 C.3         1 MOL       0.1141
     37 CW4        17.5977   13.3023   36.2900 C.3         1 MOL       0.1119
     38 CW5        16.7217   14.5877   36.2498 C.3         1 MOL       0.1130
     39 CW6        16.8627   15.3592   34.9184 C.3         1 MOL       0.0730
     40 OW2        15.3754   11.4715   38.8003 O.3         1 MOL      -0.3841
     41 OW3        17.9278   11.1933   37.4799 O.3         1 MOL      -0.3864
     42 OW4        18.9813   13.6503   36.3529 O.3         1 MOL      -0.3865
     43 OW5        15.3172   14.2879   36.4120 O.3         1 MOL      -0.3405
     44 OW6        16.1831   16.6163   34.9852 O.3         1 MOL      -0.3924
     45 CY1        10.5459   17.8127   44.9827 C.3         1 MOL       0.0073
     46 CY2        11.3085   19.0773   44.4847 C.3         1 MOL       0.1257
     47 OY2        10.4542   20.2184   44.5577 O.3         1 MOL      -0.3835
     48 CY3        11.8955   18.8628   43.0607 C.3         1 MOL       0.1127
     49 OY3        12.6944   19.9992   42.7157 O.3         1 MOL      -0.3864
     50 CY4        12.7639   17.5648   42.8853 C.3         1 MOL       0.0953
     51 OY4        12.8076   17.1841   41.4910 O.3         1 MOL      -0.3424
     52 CY5        12.1847   16.3205   43.6297 C.3         1 MOL       0.0162
     53 CY6        11.5775   16.6441   45.0101 C.3         1 MOL       0.0002
     54 CY7        13.1392   15.0904   43.7207 C.3         1 MOL       0.0497
     55 OY7        14.4287   15.4718   44.2121 O.3         1 MOL      -0.3946
     56 H1          1.7633   13.7061   38.5256 H           1 MOL       0.0935
     57 H2          3.9215   14.6615   37.9694 H           1 MOL       0.0671
     58 H3          4.8777   13.9560   40.7762 H           1 MOL       0.0648
     59 H4          4.4419   16.8151   39.7870 H           1 MOL       0.0651
     60 H5          2.5545   15.3690   41.7136 H           1 MOL       0.0647
     61 H6          2.2364   17.9932   40.1698 H           1 MOL       0.0584
     62 H7          2.5248   17.8474   41.9141 H           1 MOL       0.0584
     63 H8          1.2545   13.1493   40.6561 H           1 MOL       0.2126
     64 H9          3.8155   12.4935   37.7452 H           1 MOL       0.2101
     65 H10         6.4753   13.9810   39.3322 H           1 MOL       0.2100
     66 H11         0.5923   16.6470   42.0465 H           1 MOL       0.2095
     67 H12         6.4621   15.2194   41.7471 H           1 MOL       0.0938
     68 H13         5.5852   15.3964   44.0839 H           1 MOL       0.0672
     69 H14         7.8684   15.6352   45.1581 H           1 MOL       0.0679
     70 H15         9.7368   15.8232   43.3529 H           1 MOL       0.0903
     71 H16         9.0543   17.8854   41.7387 H           1 MOL       0.0652
     72 H17         8.8902   16.3941   39.8406 H           1 MOL       0.0257
     73 H18         8.5736   14.9913   40.8947 H           1 MOL       0.0257
     74 H19        10.1513   15.8065   40.9408 H           1 MOL       0.0257
     75 H20         6.0431   17.2098   45.2541 H           1 MOL       0.2101
     76 H21         7.2159   13.7602   44.1587 H           1 MOL       0.2102
     77 H22         8.5145   17.6854   45.0231 H           1 MOL       0.2022
     78 H23         9.0601   18.5199   43.7266 H           1 MOL       0.2022
     79 H24        13.5820   18.9429   40.6681 H           1 MOL       0.0938
     80 H25        13.6514   18.1561   38.3863 H           1 MOL       0.0671
     81 H26        12.7355   15.4063   39.4015 H           1 MOL       0.0648
     82 H27        15.4495   16.2393   38.2460 H           1 MOL       0.0651
     83 H28        14.7529   15.4704   41.1148 H           1 MOL       0.0647
     84 H29        17.4274   16.4453   40.0358 H           1 MOL       0.0584
     85 H30        17.0321   14.7557   40.4195 H           1 MOL       0.0584
     86 H31        11.6742   18.7001   38.5329 H           1 MOL       0.2101
     87 H32        11.9796   15.8572   37.4123 H           1 MOL       0.2100
     88 H33        17.7731   16.7339   42.0178 H           1 MOL       0.2095
     89 H34        13.8787   13.3116   37.5131 H           1 MOL       0.0938
     90 H35        15.4098   11.6028   36.7564 H           1 MOL       0.0671
     91 H36        17.5669   12.9622   38.4484 H           1 MOL       0.0648
     92 H37        17.4285   12.7034   35.3928 H           1 MOL       0.0647
     93 H38        17.0554   15.2493   37.0539 H           1 MOL       0.0647
     94 H39        16.4388   14.7869   34.0898 H           1 MOL       0.0584
     95 H40        17.9173   15.5489   34.6983 H           1 MOL       0.0584
     96 H41        16.0350   10.7456   38.8606 H           1 MOL       0.2101
     97 H42        18.8226   11.3728   37.8414 H           1 MOL       0.2100
     98 H43        19.2626   13.7817   35.4238 H           1 MOL       0.2100
     99 H44        16.3060   16.9214   35.9080 H           1 MOL       0.2095
    100 H45        10.2687   18.0018   46.0214 H           1 MOL       0.0877
    101 H46        12.1413   19.2762   45.1692 H           1 MOL       0.0677
    102 H47        11.0315   20.9926   44.3730 H           1 MOL       0.2102
    103 H48        11.0614   18.8158   42.3434 H           1 MOL       0.0647
    104 H49        12.0653   20.6615   42.3564 H           1 MOL       0.2100
    105 H50        13.7744   17.7622   43.2691 H           1 MOL       0.0627
    106 H51        11.3300   15.9670   43.0009 H           1 MOL       0.0351
    107 H52        11.1078   15.7685   45.4716 H           1 MOL       0.0325
    108 H53        12.4047   16.9190   45.6797 H           1 MOL       0.0325
    109 H54        13.2558   14.6193   42.7424 H           1 MOL       0.0561
    110 H55        12.7163   14.3223   44.3871 H           1 MOL       0.0561
    111 H56        14.7946   14.6581   44.6374 H           1 MOL       0.2094
@<TRIPOS>BOND
     1     2     1   1
     2     1     7   1
     3    11     1   1
     4     3     2   1
     5     2     8   1
     6     4     3   1
     7     3     9   1
     8     4     5   1
     9    10     4   1
    10     5     6   1
    11     5    11   1
    12     6    12   1
    13    13    10   1
    14    14    13   1
    15    22    13   1
    16    15    14   1
    17    14    19   1
    18    16    15   1
    19    15    20   1
    20    16    17   1
    21    21    16   1
    22    17    18   1
    23    17    22   1
    24    45    21   1
    25    23    24   1
    26    23    32   1
    27    51    23   1
    28    24    25   1
    29    24    29   1
    30    25    26   1
    31    25    30   1
    32    27    26   1
    33    26    31   1
    34    27    28   1
    35    32    27   1
    36    28    33   1
    37    31    34   1
    38    34    35   1
    39    34    43   1
    40    35    36   1
    41    35    40   1
    42    36    37   1
    43    36    41   1
    44    38    37   1
    45    37    42   1
    46    38    39   1
    47    43    38   1
    48    39    44   1
    49    46    45   1
    50    45    53   1
    51    46    47   1
    52    48    46   1
    53    48    49   1
    54    50    48   1
    55    50    51   1
    56    50    52   1
    57    52    53   1
    58    52    54   1
    59    54    55   1
    60     1    56   1
    61     2    57   1
    62     3    58   1
    63     4    59   1
    64     5    60   1
    65     6    61   1
    66     6    62   1
    67     7    63   1
    68     8    64   1
    69     9    65   1
    70    12    66   1
    71    13    67   1
    72    14    68   1
    73    15    69   1
    74    16    70   1
    75    17    71   1
    76    18    72   1
    77    18    73   1
    78    18    74   1
    79    19    75   1
    80    20    76   1
    81    21    77   1
    82    21    78   1
    83    23    79   1
    84    24    80   1
    85    25    81   1
    86    26    82   1
    87    27    83   1
    88    28    84   1
    89    28    85   1
    90    29    86   1
    91    30    87   1
    92    33    88   1
    93    34    89   1
    94    35    90   1
    95    36    91   1
    96    37    92   1
    97    38    93   1
    98    39    94   1
    99    39    95   1
   100    40    96   1
   101    41    97   1
   102    42    98   1
   103    44    99   1
   104    45   100   1
   105    46   101   1
   106    47   102   1
   107    48   103   1
   108    49   104   1
   109    50   105   1
   110    52   106   1
   111    53   107   1
   112    53   108   1
   113    54   109   1
   114    54   110   1
   115    55   111   1
@<TRIPOS>SUBSTRUCTURE
     1  MOL      1

