@<TRIPOS>MOLECULE
1xd0_ligand_027
   111   115
SMALL
GAST_HUCK
****
This file was generated by PARSER (from files_GN.cpp)

@<TRIPOS>ATOM
      1 CR1        -5.4886   17.0731   39.2324 C.3         1 MOL       0.1854
      2 CR2        -5.2316   15.5575   39.4336 C.3         1 MOL       0.1339
      3 CR3        -3.8400   15.3118   40.0802 C.3         1 MOL       0.1144
      4 CR4        -2.7106   16.0591   39.3095 C.3         1 MOL       0.1184
      5 CR5        -3.0938   17.5707   39.1778 C.3         1 MOL       0.1134
      6 CR6        -2.0904   18.4379   38.3615 C.3         1 MOL       0.0730
      7 OR1        -5.7401   17.7484   40.4674 O.3         1 MOL      -0.3649
      8 OR2        -6.2737   14.9907   40.2308 O.3         1 MOL      -0.3841
      9 OR3        -3.5848   13.9085   40.0971 O.3         1 MOL      -0.3864
     10 OR4        -1.4703   15.8628   40.0374 O.3         1 MOL      -0.3401
     11 OR5        -4.3856   17.6906   38.5382 O.3         1 MOL      -0.3407
     12 OR6        -1.1686   19.1198   39.2100 O.3         1 MOL      -0.3924
     13 CV1        -0.2312   15.7499   39.3021 C.3         1 MOL       0.1886
     14 CV2         0.4139   14.3507   39.4905 C.3         1 MOL       0.1370
     15 CV3         1.8071   14.3021   38.8034 C.3         1 MOL       0.1304
     16 CV4         2.7315   15.4849   39.2453 C.3         1 MOL       0.0334
     17 CV5         1.9677   16.8554   39.2075 C.3         1 MOL       0.1038
     18 CV6         1.9000   17.5195   37.8015 C.3         1 MOL      -0.0332
     19 OV2         0.5733   14.0462   40.8794 O.3         1 MOL      -0.3840
     20 OV3         1.6562   14.3123   37.3821 O.3         1 MOL      -0.3834
     21 NV4         3.3171   15.2844   40.6106 N.4         1 MOL       0.2370
     22 OV5         0.6613   16.7537   39.8218 O.3         1 MOL      -0.3401
     23 CQ1         8.3897   16.9629   43.5892 C.3         1 MOL       0.1883
     24 CQ2         8.9849   18.4013   43.6239 C.3         1 MOL       0.1341
     25 CQ3        10.3247   18.4946   44.4202 C.3         1 MOL       0.1144
     26 CQ4        11.3167   17.3418   44.0637 C.3         1 MOL       0.1184
     27 CQ5        10.6035   15.9501   43.9980 C.3         1 MOL       0.1134
     28 CQ6        10.3966   15.1988   45.3465 C.3         1 MOL       0.0730
     29 OQ2         9.2088   18.8447   42.2892 O.3         1 MOL      -0.3841
     30 OQ3        10.0790   18.6167   45.8196 O.3         1 MOL      -0.3864
     31 OQ4        11.8892   17.7423   42.8007 O.3         1 MOL      -0.3401
     32 OQ5         9.4095   16.0184   43.1971 O.3         1 MOL      -0.3405
     33 OQ6        10.1655   16.0053   46.4983 O.3         1 MOL      -0.3924
     34 CW1        12.9992   17.0449   42.1934 C.3         1 MOL       0.1884
     35 CW2        13.6760   17.9880   41.1639 C.3         1 MOL       0.1341
     36 CW3        12.6784   18.3233   40.0218 C.3         1 MOL       0.1141
     37 CW4        12.0964   17.0299   39.3816 C.3         1 MOL       0.1119
     38 CW5        11.5986   16.0288   40.4670 C.3         1 MOL       0.1130
     39 CW6        11.2708   14.6413   39.8681 C.3         1 MOL       0.0730
     40 OW2        14.1513   19.1759   41.7957 O.3         1 MOL      -0.3841
     41 OW3        13.3445   19.1050   39.0338 O.3         1 MOL      -0.3864
     42 OW4        10.9990   17.3457   38.5203 O.3         1 MOL      -0.3865
     43 OW5        12.5915   15.8441   41.5029 O.3         1 MOL      -0.3405
     44 OW6        11.2138   13.6469   40.8866 O.3         1 MOL      -0.3924
     45 CY1         4.3992   14.2776   40.8302 C.3         1 MOL       0.0073
     46 CY2         4.7106   14.1248   42.3520 C.3         1 MOL       0.1257
     47 OY2         3.5091   13.8777   43.0908 O.3         1 MOL      -0.3835
     48 CY3         5.4674   15.3455   42.9590 C.3         1 MOL       0.1127
     49 OY3         5.8276   15.0554   44.3123 O.3         1 MOL      -0.3864
     50 CY4         6.7388   15.7289   42.1398 C.3         1 MOL       0.0953
     51 OY4         7.3058   16.9654   42.6281 O.3         1 MOL      -0.3424
     52 CY5         6.3935   15.9068   40.6224 C.3         1 MOL       0.0162
     53 CY6         5.7324   14.6015   40.0841 C.3         1 MOL       0.0002
     54 CY7         7.6268   16.3101   39.7567 C.3         1 MOL       0.0497
     55 OY7         7.7499   17.7249   39.6395 O.3         1 MOL      -0.3946
     56 H1         -6.3770   17.1978   38.6076 H           1 MOL       0.0935
     57 H2         -5.2620   15.0733   38.4518 H           1 MOL       0.0671
     58 H3         -3.8662   15.6626   41.1162 H           1 MOL       0.0648
     59 H4         -2.6590   15.6094   38.3090 H           1 MOL       0.0651
     60 H5         -3.1578   18.0074   40.1794 H           1 MOL       0.0647
     61 H6         -2.6262   19.2073   37.8005 H           1 MOL       0.0584
     62 H7         -1.5374   17.8326   37.6398 H           1 MOL       0.0584
     63 H8         -6.6060   17.4108   40.7826 H           1 MOL       0.2126
     64 H9         -6.1125   14.0232   40.2222 H           1 MOL       0.2101
     65 H10        -2.8511   13.7748   40.7312 H           1 MOL       0.2100
     66 H11        -0.6089   18.4238   39.6076 H           1 MOL       0.2095
     67 H12        -0.3886   15.9145   38.2338 H           1 MOL       0.0938
     68 H13        -0.2351   13.5872   39.0497 H           1 MOL       0.0672
     69 H14         2.2793   13.3464   39.0370 H           1 MOL       0.0679
     70 H15         3.5500   15.5642   38.5306 H           1 MOL       0.0903
     71 H16         2.5190   17.5722   39.8269 H           1 MOL       0.0652
     72 H17         1.3593   18.4630   37.8658 H           1 MOL       0.0257
     73 H18         1.3993   16.8840   37.0754 H           1 MOL       0.0257
     74 H19         2.9049   17.7253   37.4334 H           1 MOL       0.0257
     75 H20        -0.3293   13.8943   41.2269 H           1 MOL       0.2101
     76 H21         1.2029   13.4730   37.1562 H           1 MOL       0.2102
     77 H22         2.5450   15.0521   41.2357 H           1 MOL       0.2022
     78 H23         3.6877   16.1822   40.9229 H           1 MOL       0.2022
     79 H24         7.9810   16.6985   44.5711 H           1 MOL       0.0938
     80 H25         8.2519   19.0732   44.0724 H           1 MOL       0.0671
     81 H26        10.7999   19.4488   44.1657 H           1 MOL       0.0648
     82 H27        12.1211   17.3149   44.8091 H           1 MOL       0.0651
     83 H28        11.2494   15.2828   43.4372 H           1 MOL       0.0647
     84 H29        11.2948   14.6158   45.5667 H           1 MOL       0.0584
     85 H30         9.5643   14.4932   45.2479 H           1 MOL       0.0584
     86 H31        10.0431   18.4152   42.0072 H           1 MOL       0.2101
     87 H32        10.7510   18.0497   46.2486 H           1 MOL       0.2100
     88 H33         9.2787   16.4083   46.4120 H           1 MOL       0.2095
     89 H34        13.7390   16.7701   42.9536 H           1 MOL       0.0938
     90 H35        14.5425   17.4780   40.7351 H           1 MOL       0.0671
     91 H36        11.8574   18.9237   40.4283 H           1 MOL       0.0648
     92 H37        12.8836   16.5560   38.7857 H           1 MOL       0.0647
     93 H38        10.6807   16.4164   40.9152 H           1 MOL       0.0647
     94 H39        12.0497   14.3578   39.1568 H           1 MOL       0.0584
     95 H40        10.3112   14.6651   39.3477 H           1 MOL       0.0584
     96 H41        13.3474   19.6601   42.0801 H           1 MOL       0.2101
     97 H42        12.6293   19.4379   38.4527 H           1 MOL       0.2100
     98 H43        11.2301   18.1880   38.0740 H           1 MOL       0.2100
     99 H44        11.6420   12.8656   40.4748 H           1 MOL       0.2095
    100 H45         4.0510   13.3106   40.4783 H           1 MOL       0.0877
    101 H46         5.3440   13.2378   42.4831 H           1 MOL       0.0677
    102 H47         3.7900   13.3561   43.8705 H           1 MOL       0.2102
    103 H48         4.7928   16.2043   42.9779 H           1 MOL       0.0647
    104 H49         6.1381   14.1225   44.3157 H           1 MOL       0.2100
    105 H50         7.4510   14.9011   42.2222 H           1 MOL       0.0627
    106 H51         5.6701   16.7214   40.5248 H           1 MOL       0.0351
    107 H52         5.5486   14.6797   39.0135 H           1 MOL       0.0325
    108 H53         6.4304   13.7638   40.2163 H           1 MOL       0.0325
    109 H54         7.5289   15.9356   38.7367 H           1 MOL       0.0561
    110 H55         8.5420   15.8948   40.1820 H           1 MOL       0.0561
    111 H56         8.2158   18.0161   40.4478 H           1 MOL       0.2094
@<TRIPOS>BOND
     1     2     1   1
     2     1     7   1
     3    11     1   1
     4     3     2   1
     5     2     8   1
     6     4     3   1
     7     3     9   1
     8     4     5   1
     9    10     4   1
    10     5     6   1
    11     5    11   1
    12     6    12   1
    13    13    10   1
    14    14    13   1
    15    22    13   1
    16    15    14   1
    17    14    19   1
    18    16    15   1
    19    15    20   1
    20    16    17   1
    21    21    16   1
    22    17    18   1
    23    17    22   1
    24    45    21   1
    25    23    24   1
    26    23    32   1
    27    51    23   1
    28    24    25   1
    29    24    29   1
    30    25    26   1
    31    25    30   1
    32    27    26   1
    33    26    31   1
    34    27    28   1
    35    32    27   1
    36    28    33   1
    37    31    34   1
    38    34    35   1
    39    34    43   1
    40    35    36   1
    41    35    40   1
    42    36    37   1
    43    36    41   1
    44    38    37   1
    45    37    42   1
    46    38    39   1
    47    43    38   1
    48    39    44   1
    49    46    45   1
    50    45    53   1
    51    46    47   1
    52    48    46   1
    53    48    49   1
    54    50    48   1
    55    50    51   1
    56    50    52   1
    57    52    53   1
    58    52    54   1
    59    54    55   1
    60     1    56   1
    61     2    57   1
    62     3    58   1
    63     4    59   1
    64     5    60   1
    65     6    61   1
    66     6    62   1
    67     7    63   1
    68     8    64   1
    69     9    65   1
    70    12    66   1
    71    13    67   1
    72    14    68   1
    73    15    69   1
    74    16    70   1
    75    17    71   1
    76    18    72   1
    77    18    73   1
    78    18    74   1
    79    19    75   1
    80    20    76   1
    81    21    77   1
    82    21    78   1
    83    23    79   1
    84    24    80   1
    85    25    81   1
    86    26    82   1
    87    27    83   1
    88    28    84   1
    89    28    85   1
    90    29    86   1
    91    30    87   1
    92    33    88   1
    93    34    89   1
    94    35    90   1
    95    36    91   1
    96    37    92   1
    97    38    93   1
    98    39    94   1
    99    39    95   1
   100    40    96   1
   101    41    97   1
   102    42    98   1
   103    44    99   1
   104    45   100   1
   105    46   101   1
   106    47   102   1
   107    48   103   1
   108    49   104   1
   109    50   105   1
   110    52   106   1
   111    53   107   1
   112    53   108   1
   113    54   109   1
   114    54   110   1
   115    55   111   1
@<TRIPOS>SUBSTRUCTURE
     1  MOL      1

