@<TRIPOS>MOLECULE
1xd0_ligand_047
   111   115
SMALL
GAST_HUCK
****
This file was generated by PARSER (from files_GN.cpp)

@<TRIPOS>ATOM
      1 CR1        11.8741   16.7540   38.2777 C.3         1 MOL       0.1854
      2 CR2        13.2852   16.6096   38.9003 C.3         1 MOL       0.1339
      3 CR3        13.5362   17.7509   39.9234 C.3         1 MOL       0.1144
      4 CR4        12.3916   17.8827   40.9741 C.3         1 MOL       0.1184
      5 CR5        10.9614   17.7503   40.3312 C.3         1 MOL       0.1134
      6 CR6        10.2855   19.0989   39.9156 C.3         1 MOL       0.0730
      7 OR1        11.6089   15.6790   37.3797 O.3         1 MOL      -0.3649
      8 OR2        13.4326   15.3334   39.5272 O.3         1 MOL      -0.3841
      9 OR3        13.7040   18.9876   39.2248 O.3         1 MOL      -0.3864
     10 OR4        12.5410   16.8648   41.9938 O.3         1 MOL      -0.3401
     11 OR5        10.8739   16.7375   39.3041 O.3         1 MOL      -0.3407
     12 OR6        11.1864   20.1977   39.8082 O.3         1 MOL      -0.3924
     13 CV1        13.1013   17.2571   43.2758 C.3         1 MOL       0.1886
     14 CV2        13.1036   16.0670   44.2578 C.3         1 MOL       0.1370
     15 CV3        11.6424   15.5894   44.4978 C.3         1 MOL       0.1304
     16 CV4        10.6442   16.7389   44.8996 C.3         1 MOL       0.0334
     17 CV5        10.9876   18.0852   44.1611 C.3         1 MOL       0.1038
     18 CV6        10.4642   19.3310   44.9111 C.3         1 MOL      -0.0332
     19 OV2        13.9185   15.0224   43.7249 O.3         1 MOL      -0.3840
     20 OV3        11.6705   14.5615   45.4870 O.3         1 MOL      -0.3834
     21 NV4         9.1660   16.5138   44.6958 N.4         1 MOL       0.2370
     22 OV5        12.3934   18.3208   43.9368 O.3         1 MOL      -0.3401
     23 CQ1         3.3867   15.4748   42.3220 C.3         1 MOL       0.1883
     24 CQ2         3.5508   14.1390   41.5444 C.3         1 MOL       0.1341
     25 CQ3         2.1859   13.6467   41.0002 C.3         1 MOL       0.1144
     26 CQ4         1.5209   14.7173   40.0873 C.3         1 MOL       0.1184
     27 CQ5         1.5182   16.1327   40.7629 C.3         1 MOL       0.1134
     28 CQ6         0.2521   16.4716   41.5967 C.3         1 MOL       0.0730
     29 OQ2         4.4613   14.3167   40.4605 O.3         1 MOL      -0.3841
     30 OQ3         1.3516   13.2734   42.0943 O.3         1 MOL      -0.3864
     31 OQ4         2.2902   14.8226   38.8610 O.3         1 MOL      -0.3401
     32 OQ5         2.7519   16.4540   41.4637 O.3         1 MOL      -0.3405
     33 OQ6         0.0055   15.5825   42.6776 O.3         1 MOL      -0.3924
     34 CW1         1.7905   14.3621   37.5831 C.3         1 MOL       0.1884
     35 CW2         1.8387   12.8232   37.3427 C.3         1 MOL       0.1341
     36 CW3         3.3103   12.3272   37.3134 C.3         1 MOL       0.1141
     37 CW4         4.1245   13.1100   36.2470 C.3         1 MOL       0.1119
     38 CW5         3.9606   14.6478   36.4600 C.3         1 MOL       0.1130
     39 CW6         4.6022   15.4825   35.3250 C.3         1 MOL       0.0730
     40 OW2         1.0665   12.1080   38.3016 O.3         1 MOL      -0.3841
     41 OW3         3.3503   10.9260   37.0413 O.3         1 MOL      -0.3864
     42 OW4         5.5060   12.7497   36.3126 O.3         1 MOL      -0.3865
     43 OW5         2.5611   15.0147   36.5502 O.3         1 MOL      -0.3405
     44 OW6         3.9741   15.2498   34.0670 O.3         1 MOL      -0.3924
     45 CY1         8.5104   15.1687   44.6664 C.3         1 MOL       0.0073
     46 CY2         8.1599   14.7073   43.2170 C.3         1 MOL       0.1257
     47 OY2         9.2683   14.8351   42.3297 O.3         1 MOL      -0.3835
     48 CY3         6.9771   15.4982   42.6007 C.3         1 MOL       0.1127
     49 OY3         6.7739   15.0616   41.2562 O.3         1 MOL      -0.3864
     50 CY4         5.6815   15.3471   43.4538 C.3         1 MOL       0.0953
     51 OY4         4.6362   16.0799   42.7550 O.3         1 MOL      -0.3424
     52 CY5         5.9685   15.8857   44.9030 C.3         1 MOL       0.0162
     53 CY6         7.2107   15.1609   45.5333 C.3         1 MOL       0.0002
     54 CY7         4.7271   15.7435   45.8309 C.3         1 MOL       0.0497
     55 OY7         4.7187   16.7462   46.8471 O.3         1 MOL      -0.3946
     56 H1         11.8024   17.6828   37.7050 H           1 MOL       0.0935
     57 H2         14.0302   16.6650   38.1028 H           1 MOL       0.0671
     58 H3         14.4804   17.5571   40.4412 H           1 MOL       0.0648
     59 H4         12.4737   18.8699   41.4380 H           1 MOL       0.0651
     60 H5         10.3021   17.3329   41.0989 H           1 MOL       0.0647
     61 H6          9.5368   19.3736   40.6644 H           1 MOL       0.0584
     62 H7          9.7673   18.9872   38.9607 H           1 MOL       0.0584
     63 H8         11.4128   14.9013   37.9461 H           1 MOL       0.2126
     64 H9         12.7117   15.2766   40.1891 H           1 MOL       0.2101
     65 H10        14.3986   18.8174   38.5542 H           1 MOL       0.2100
     66 H11        10.6898   20.9804   40.1318 H           1 MOL       0.2095
     67 H12        14.1338   17.5888   43.1242 H           1 MOL       0.0938
     68 H13        13.5431   16.3949   45.2042 H           1 MOL       0.0672
     69 H14        11.3142   15.1257   43.5686 H           1 MOL       0.0679
     70 H15        10.7862   16.8945   45.9653 H           1 MOL       0.0903
     71 H16        10.4977   18.0938   43.1821 H           1 MOL       0.0652
     72 H17        10.6885   20.2347   44.3383 H           1 MOL       0.0257
     73 H18        10.9460   19.4098   45.8865 H           1 MOL       0.0257
     74 H19         9.3812   19.2676   45.0449 H           1 MOL       0.0257
     75 H20        14.3579   14.6173   44.5014 H           1 MOL       0.2101
     76 H21        12.1553   14.9469   46.2454 H           1 MOL       0.2102
     77 H22         8.9195   16.9540   43.8114 H           1 MOL       0.2022
     78 H23         8.6917   17.0582   45.4279 H           1 MOL       0.2022
     79 H24         2.7638   15.3197   43.2053 H           1 MOL       0.0938
     80 H25         3.9542   13.3693   42.2009 H           1 MOL       0.0671
     81 H26         2.3599   12.7372   40.4263 H           1 MOL       0.0648
     82 H27         0.4915   14.4173   39.8650 H           1 MOL       0.0651
     83 H28         1.4902   16.8635   39.9480 H           1 MOL       0.0647
     84 H29        -0.6255   16.4730   40.9487 H           1 MOL       0.0584
     85 H30         0.3591   17.4769   42.0044 H           1 MOL       0.0584
     86 H31         4.6833   13.4072   40.1712 H           1 MOL       0.2101
     87 H32         0.4630   13.0698   41.7261 H           1 MOL       0.2100
     88 H33        -0.5075   14.8403   42.2887 H           1 MOL       0.2095
     89 H34         0.7611   14.7060   37.4609 H           1 MOL       0.0938
     90 H35         1.3939   12.6203   36.3654 H           1 MOL       0.0671
     91 H36         3.7638   12.4799   38.2952 H           1 MOL       0.0648
     92 H37         3.7543   12.8419   35.2520 H           1 MOL       0.0647
     93 H38         4.4643   14.9265   37.3924 H           1 MOL       0.0647
     94 H39         5.6626   15.2396   35.2329 H           1 MOL       0.0584
     95 H40         4.5185   16.5452   35.5619 H           1 MOL       0.0584
     96 H41         0.1431   12.4070   38.1535 H           1 MOL       0.2101
     97 H42         4.2625   10.6432   37.2646 H           1 MOL       0.2100
     98 H43         5.5632   11.8567   35.9111 H           1 MOL       0.2100
     99 H44         3.0664   15.6090   34.1619 H           1 MOL       0.2095
    100 H45         9.1842   14.4295   45.1079 H           1 MOL       0.0877
    101 H46         7.8860   13.6478   43.2524 H           1 MOL       0.0677
    102 H47         9.0830   14.1900   41.6007 H           1 MOL       0.2102
    103 H48         7.2408   16.5556   42.5478 H           1 MOL       0.0647
    104 H49         6.6147   14.0992   41.3169 H           1 MOL       0.2100
    105 H50         5.4200   14.2817   43.5310 H           1 MOL       0.0627
    106 H51         6.2050   16.9502   44.8222 H           1 MOL       0.0351
    107 H52         7.4413   15.5970   46.5118 H           1 MOL       0.0325
    108 H53         6.9404   14.1137   45.7154 H           1 MOL       0.0325
    109 H54         4.7048   14.7545   46.3013 H           1 MOL       0.0561
    110 H55         3.8072   15.8606   45.2588 H           1 MOL       0.0561
    111 H56         5.4246   16.4901   47.4772 H           1 MOL       0.2094
@<TRIPOS>BOND
     1     2     1   1
     2     1     7   1
     3    11     1   1
     4     3     2   1
     5     2     8   1
     6     4     3   1
     7     3     9   1
     8     4     5   1
     9    10     4   1
    10     5     6   1
    11     5    11   1
    12     6    12   1
    13    13    10   1
    14    14    13   1
    15    22    13   1
    16    15    14   1
    17    14    19   1
    18    16    15   1
    19    15    20   1
    20    16    17   1
    21    21    16   1
    22    17    18   1
    23    17    22   1
    24    45    21   1
    25    23    24   1
    26    23    32   1
    27    51    23   1
    28    24    25   1
    29    24    29   1
    30    25    26   1
    31    25    30   1
    32    27    26   1
    33    26    31   1
    34    27    28   1
    35    32    27   1
    36    28    33   1
    37    31    34   1
    38    34    35   1
    39    34    43   1
    40    35    36   1
    41    35    40   1
    42    36    37   1
    43    36    41   1
    44    38    37   1
    45    37    42   1
    46    38    39   1
    47    43    38   1
    48    39    44   1
    49    46    45   1
    50    45    53   1
    51    46    47   1
    52    48    46   1
    53    48    49   1
    54    50    48   1
    55    50    51   1
    56    50    52   1
    57    52    53   1
    58    52    54   1
    59    54    55   1
    60     1    56   1
    61     2    57   1
    62     3    58   1
    63     4    59   1
    64     5    60   1
    65     6    61   1
    66     6    62   1
    67     7    63   1
    68     8    64   1
    69     9    65   1
    70    12    66   1
    71    13    67   1
    72    14    68   1
    73    15    69   1
    74    16    70   1
    75    17    71   1
    76    18    72   1
    77    18    73   1
    78    18    74   1
    79    19    75   1
    80    20    76   1
    81    21    77   1
    82    21    78   1
    83    23    79   1
    84    24    80   1
    85    25    81   1
    86    26    82   1
    87    27    83   1
    88    28    84   1
    89    28    85   1
    90    29    86   1
    91    30    87   1
    92    33    88   1
    93    34    89   1
    94    35    90   1
    95    36    91   1
    96    37    92   1
    97    38    93   1
    98    39    94   1
    99    39    95   1
   100    40    96   1
   101    41    97   1
   102    42    98   1
   103    44    99   1
   104    45   100   1
   105    46   101   1
   106    47   102   1
   107    48   103   1
   108    49   104   1
   109    50   105   1
   110    52   106   1
   111    53   107   1
   112    53   108   1
   113    54   109   1
   114    54   110   1
   115    55   111   1
@<TRIPOS>SUBSTRUCTURE
     1  MOL      1

