@<TRIPOS>MOLECULE
1xd0_ligand_048
   111   115
SMALL
GAST_HUCK
****
This file was generated by PARSER (from files_GN.cpp)

@<TRIPOS>ATOM
      1 CR1        15.2062   14.9721   39.4649 C.3         1 MOL       0.1854
      2 CR2        15.7237   16.3698   39.8886 C.3         1 MOL       0.1339
      3 CR3        14.8425   16.9698   41.0195 C.3         1 MOL       0.1144
      4 CR4        13.3232   16.9339   40.6507 C.3         1 MOL       0.1184
      5 CR5        12.9157   15.5120   40.1518 C.3         1 MOL       0.1134
      6 CR6        11.4795   15.4706   39.5540 C.3         1 MOL       0.0730
      7 OR1        15.4398   13.9908   40.4743 O.3         1 MOL      -0.3649
      8 OR2        17.0884   16.2367   40.2847 O.3         1 MOL      -0.3841
      9 OR3        15.2544   18.3125   41.2847 O.3         1 MOL      -0.3864
     10 OR4        12.5195   17.2120   41.8230 O.3         1 MOL      -0.3401
     11 OR5        13.8091   15.0199   39.1263 O.3         1 MOL      -0.3407
     12 OR6        10.7913   14.2886   39.9501 O.3         1 MOL      -0.3924
     13 CV1        11.9235   18.5198   41.9913 C.3         1 MOL       0.1886
     14 CV2        11.7284   18.8183   43.4989 C.3         1 MOL       0.1370
     15 CV3        10.6514   17.8921   44.1128 C.3         1 MOL       0.1304
     16 CV4         9.3103   17.9588   43.3241 C.3         1 MOL       0.0334
     17 CV5         9.5596   17.8173   41.7826 C.3         1 MOL       0.1038
     18 CV6         8.3415   18.2107   40.9147 C.3         1 MOL      -0.0332
     19 OV2        12.9660   18.6842   44.1966 O.3         1 MOL      -0.3840
     20 OV3        10.4052   18.2846   45.4610 O.3         1 MOL      -0.3834
     21 NV4         8.2144   17.1053   43.8941 N.4         1 MOL       0.2370
     22 OV5        10.6573   18.6321   41.3048 O.3         1 MOL      -0.3401
     23 CQ1         3.7906   15.6054   41.9542 C.3         1 MOL       0.1883
     24 CQ2         2.3720   15.2762   41.4148 C.3         1 MOL       0.1341
     25 CQ3         2.4139   14.7113   39.9653 C.3         1 MOL       0.1144
     26 CQ4         3.2520   15.6410   39.0352 C.3         1 MOL       0.1184
     27 CQ5         4.6632   15.8121   39.6692 C.3         1 MOL       0.1134
     28 CQ6         5.6180   16.7385   38.8740 C.3         1 MOL       0.0730
     29 OQ2         1.7190   14.3623   42.2988 O.3         1 MOL      -0.3841
     30 OQ3         1.0759   14.5553   39.4945 O.3         1 MOL      -0.3864
     31 OQ4         3.4236   15.1089   37.7006 O.3         1 MOL      -0.3401
     32 OQ5         4.5413   16.3738   40.9964 O.3         1 MOL      -0.3405
     33 OQ6         5.9626   16.1872   37.6071 O.3         1 MOL      -0.3924
     34 CW1         2.3911   15.2953   36.7050 C.3         1 MOL       0.1884
     35 CW2         2.9452   14.9776   35.2864 C.3         1 MOL       0.1341
     36 CW3         3.9014   16.0967   34.7892 C.3         1 MOL       0.1141
     37 CW4         3.2339   17.4934   34.9094 C.3         1 MOL       0.1119
     38 CW5         2.6765   17.7073   36.3497 C.3         1 MOL       0.1130
     39 CW6         1.8939   19.0306   36.5216 C.3         1 MOL       0.0730
     40 OW2         3.6003   13.7106   35.2752 O.3         1 MOL      -0.3841
     41 OW3         4.2754   15.8616   33.4332 O.3         1 MOL      -0.3864
     42 OW4         4.1749   18.5158   34.5721 O.3         1 MOL      -0.3865
     43 OW5         1.8009   16.6150   36.7171 O.3         1 MOL      -0.3405
     44 OW6         0.6529   18.9974   35.8222 O.3         1 MOL      -0.3924
     45 CY1         8.3114   15.6306   44.1790 C.3         1 MOL       0.0073
     46 CY2         8.2754   14.6667   42.9581 C.3         1 MOL       0.1257
     47 OY2         9.4240   14.8497   42.1316 O.3         1 MOL      -0.3835
     48 CY3         6.9337   14.7837   42.1786 C.3         1 MOL       0.1127
     49 OY3         6.9556   13.9223   41.0386 O.3         1 MOL      -0.3864
     50 CY4         5.7256   14.4290   43.0974 C.3         1 MOL       0.0953
     51 OY4         4.4664   14.4003   42.3747 O.3         1 MOL      -0.3424
     52 CY5         5.7298   15.2360   44.4505 C.3         1 MOL       0.0162
     53 CY6         7.1413   15.2264   45.1303 C.3         1 MOL       0.0002
     54 CY7         4.6326   14.6908   45.4182 C.3         1 MOL       0.0497
     55 OY7         4.3731   15.5667   46.5123 O.3         1 MOL      -0.3946
     56 H1         15.7477   14.6538   38.5718 H           1 MOL       0.0935
     57 H2         15.6878   17.0341   39.0197 H           1 MOL       0.0671
     58 H3         14.9959   16.3924   41.9352 H           1 MOL       0.0648
     59 H4         13.1287   17.6511   39.8416 H           1 MOL       0.0651
     60 H5         12.9545   14.8311   41.0093 H           1 MOL       0.0647
     61 H6         11.5094   15.5093   38.4603 H           1 MOL       0.0584
     62 H7         10.8864   16.3163   39.8865 H           1 MOL       0.0584
     63 H8         15.4156   13.1342   39.9976 H           1 MOL       0.2126
     64 H9         17.3588   17.1141   40.6238 H           1 MOL       0.2101
     65 H10        16.2146   18.2695   41.4887 H           1 MOL       0.2100
     66 H11        11.3980   13.5500   39.7360 H           1 MOL       0.2095
     67 H12        12.5774   19.2969   41.5805 H           1 MOL       0.0938
     68 H13        11.3973   19.8555   43.6074 H           1 MOL       0.0672
     69 H14        11.0304   16.8668   44.1115 H           1 MOL       0.0679
     70 H15         8.9466   18.9802   43.4643 H           1 MOL       0.0903
     71 H16         9.7964   16.7771   41.5655 H           1 MOL       0.0652
     72 H17         8.5470   17.9728   39.8703 H           1 MOL       0.0257
     73 H18         8.1363   19.2792   40.9905 H           1 MOL       0.0257
     74 H19         7.4476   17.6700   41.2223 H           1 MOL       0.0257
     75 H20        13.4906   19.4719   43.9405 H           1 MOL       0.2101
     76 H21        11.1372   17.9073   45.9872 H           1 MOL       0.2102
     77 H22         7.3757   17.2526   43.3347 H           1 MOL       0.2022
     78 H23         8.0220   17.5230   44.8093 H           1 MOL       0.2022
     79 H24         3.6376   16.2432   42.8219 H           1 MOL       0.0938
     80 H25         1.7856   16.1999   41.4062 H           1 MOL       0.0671
     81 H26         2.8707   13.7169   39.9799 H           1 MOL       0.0648
     82 H27         2.7858   16.6308   39.0007 H           1 MOL       0.0651
     83 H28         5.1422   14.8328   39.7265 H           1 MOL       0.0647
     84 H29         6.5480   16.8471   39.4320 H           1 MOL       0.0584
     85 H30         5.1770   17.7281   38.7442 H           1 MOL       0.0584
     86 H31         0.8696   14.1304   41.8657 H           1 MOL       0.2101
     87 H32         0.6991   15.4605   39.4632 H           1 MOL       0.2100
     88 H33         6.5524   16.8531   37.1942 H           1 MOL       0.2095
     89 H34         1.5891   14.5824   36.9047 H           1 MOL       0.0938
     90 H35         2.1007   14.9113   34.5941 H           1 MOL       0.0671
     91 H36         4.8144   16.0839   35.3910 H           1 MOL       0.0648
     92 H37         2.4077   17.5511   34.1951 H           1 MOL       0.0647
     93 H38         3.5196   17.7438   37.0452 H           1 MOL       0.0647
     94 H39         2.4875   19.8701   36.1559 H           1 MOL       0.0584
     95 H40         1.6879   19.1960   37.5813 H           1 MOL       0.0584
     96 H41         4.3517   13.7996   35.8995 H           1 MOL       0.2101
     97 H42         4.7949   15.0303   33.4491 H           1 MOL       0.2100
     98 H43         4.8925   18.4416   35.2370 H           1 MOL       0.2100
     99 H44         0.2433   19.8712   35.9892 H           1 MOL       0.2095
    100 H45         9.2327   15.4460   44.7374 H           1 MOL       0.0877
    101 H46         8.3483   13.6406   43.3337 H           1 MOL       0.0677
    102 H47         9.3577   14.1644   41.4296 H           1 MOL       0.2102
    103 H48         6.8307   15.8039   41.8083 H           1 MOL       0.0647
    104 H49         6.4649   13.1104   41.2889 H           1 MOL       0.2100
    105 H50         5.8687   13.3830   43.3750 H           1 MOL       0.0627
    106 H51         5.5005   16.2822   44.2359 H           1 MOL       0.0351
    107 H52         7.1296   15.9031   45.9871 H           1 MOL       0.0325
    108 H53         7.3396   14.2245   45.5239 H           1 MOL       0.0325
    109 H54         4.9251   13.7154   45.8154 H           1 MOL       0.0561
    110 H55         3.6890   14.5653   44.8863 H           1 MOL       0.0561
    111 H56         5.2108   15.6167   47.0225 H           1 MOL       0.2094
@<TRIPOS>BOND
     1     2     1   1
     2     1     7   1
     3    11     1   1
     4     3     2   1
     5     2     8   1
     6     4     3   1
     7     3     9   1
     8     4     5   1
     9    10     4   1
    10     5     6   1
    11     5    11   1
    12     6    12   1
    13    13    10   1
    14    14    13   1
    15    22    13   1
    16    15    14   1
    17    14    19   1
    18    16    15   1
    19    15    20   1
    20    16    17   1
    21    21    16   1
    22    17    18   1
    23    17    22   1
    24    45    21   1
    25    23    24   1
    26    23    32   1
    27    51    23   1
    28    24    25   1
    29    24    29   1
    30    25    26   1
    31    25    30   1
    32    27    26   1
    33    26    31   1
    34    27    28   1
    35    32    27   1
    36    28    33   1
    37    31    34   1
    38    34    35   1
    39    34    43   1
    40    35    36   1
    41    35    40   1
    42    36    37   1
    43    36    41   1
    44    38    37   1
    45    37    42   1
    46    38    39   1
    47    43    38   1
    48    39    44   1
    49    46    45   1
    50    45    53   1
    51    46    47   1
    52    48    46   1
    53    48    49   1
    54    50    48   1
    55    50    51   1
    56    50    52   1
    57    52    53   1
    58    52    54   1
    59    54    55   1
    60     1    56   1
    61     2    57   1
    62     3    58   1
    63     4    59   1
    64     5    60   1
    65     6    61   1
    66     6    62   1
    67     7    63   1
    68     8    64   1
    69     9    65   1
    70    12    66   1
    71    13    67   1
    72    14    68   1
    73    15    69   1
    74    16    70   1
    75    17    71   1
    76    18    72   1
    77    18    73   1
    78    18    74   1
    79    19    75   1
    80    20    76   1
    81    21    77   1
    82    21    78   1
    83    23    79   1
    84    24    80   1
    85    25    81   1
    86    26    82   1
    87    27    83   1
    88    28    84   1
    89    28    85   1
    90    29    86   1
    91    30    87   1
    92    33    88   1
    93    34    89   1
    94    35    90   1
    95    36    91   1
    96    37    92   1
    97    38    93   1
    98    39    94   1
    99    39    95   1
   100    40    96   1
   101    41    97   1
   102    42    98   1
   103    44    99   1
   104    45   100   1
   105    46   101   1
   106    47   102   1
   107    48   103   1
   108    49   104   1
   109    50   105   1
   110    52   106   1
   111    53   107   1
   112    53   108   1
   113    54   109   1
   114    54   110   1
   115    55   111   1
@<TRIPOS>SUBSTRUCTURE
     1  MOL      1

