@<TRIPOS>MOLECULE
1xd0_ligand_064
   111   115
SMALL
GAST_HUCK
****
This file was generated by PARSER (from files_GN.cpp)

@<TRIPOS>ATOM
      1 CR1         5.7317    8.9154   37.4501 C.3         1 MOL       0.1854
      2 CR2         6.8847    9.2335   38.4372 C.3         1 MOL       0.1339
      3 CR3         7.8001   10.3575   37.8751 C.3         1 MOL       0.1144
      4 CR4         6.9801   11.5881   37.3802 C.3         1 MOL       0.1184
      5 CR5         5.8002   11.1539   36.4461 C.3         1 MOL       0.1134
      6 CR6         6.1982   10.8223   34.9815 C.3         1 MOL       0.0730
      7 OR1         4.8009    8.0303   38.0657 O.3         1 MOL      -0.3649
      8 OR2         6.3446    9.6286   39.6989 O.3         1 MOL      -0.3841
      9 OR3         8.6143    9.8514   36.8167 O.3         1 MOL      -0.3864
     10 OR4         6.5135   12.2768   38.5649 O.3         1 MOL      -0.3401
     11 OR5         5.0180   10.1022   37.0575 O.3         1 MOL      -0.3407
     12 OR6         6.8007   11.9496   34.3470 O.3         1 MOL      -0.3924
     13 CV1         6.0979   13.6661   38.5420 C.3         1 MOL       0.1886
     14 CV2         7.2250   14.7270   38.3738 C.3         1 MOL       0.1370
     15 CV3         8.1737   14.6729   39.5981 C.3         1 MOL       0.1304
     16 CV4         7.3722   14.9151   40.9156 C.3         1 MOL       0.0334
     17 CV5         6.1879   13.9025   40.9988 C.3         1 MOL       0.1038
     18 CV6         5.2273   14.2075   42.1746 C.3         1 MOL      -0.0332
     19 OV2         7.9666   14.5980   37.1649 O.3         1 MOL      -0.3840
     20 OV3         9.1974   15.6543   39.4419 O.3         1 MOL      -0.3834
     21 NV4         8.2927   14.8145   42.0908 N.4         1 MOL       0.2370
     22 OV5         5.4001   13.9257   39.7804 O.3         1 MOL      -0.3401
     23 CQ1        13.6960   17.2821   43.0272 C.3         1 MOL       0.1883
     24 CQ2        13.9045   18.5709   42.1932 C.3         1 MOL       0.1341
     25 CQ3        13.9719   18.2032   40.6832 C.3         1 MOL       0.1144
     26 CQ4        15.1505   17.2070   40.4488 C.3         1 MOL       0.1184
     27 CQ5        15.0861   15.9997   41.4492 C.3         1 MOL       0.1134
     28 CQ6        16.4083   15.1866   41.4581 C.3         1 MOL       0.0730
     29 OQ2        12.9129   19.5311   42.5208 O.3         1 MOL      -0.3841
     30 OQ3        14.1645   19.3980   39.9264 O.3         1 MOL      -0.3864
     31 OQ4        15.3443   16.8936   39.0463 O.3         1 MOL      -0.3401
     32 OQ5        14.8439   16.4385   42.8080 O.3         1 MOL      -0.3405
     33 OQ6        16.2615   13.9764   42.1967 O.3         1 MOL      -0.3924
     34 CW1        14.6931   15.7825   38.3860 C.3         1 MOL       0.1884
     35 CW2        15.4818   15.4284   37.0958 C.3         1 MOL       0.1341
     36 CW3        15.2348   16.4894   35.9896 C.3         1 MOL       0.1141
     37 CW4        13.7160   16.6511   35.7344 C.3         1 MOL       0.1119
     38 CW5        12.9733   16.9659   37.0678 C.3         1 MOL       0.1130
     39 CW6        11.4356   16.9352   36.8816 C.3         1 MOL       0.0730
     40 OW2        16.8761   15.3161   37.4027 O.3         1 MOL      -0.3841
     41 OW3        15.8870   16.1127   34.7769 O.3         1 MOL      -0.3864
     42 OW4        13.5000   17.6821   34.7697 O.3         1 MOL      -0.3865
     43 OW5        13.2974   16.0119   38.1037 O.3         1 MOL      -0.3405
     44 OW6        10.7655   17.3360   38.0745 O.3         1 MOL      -0.3924
     45 CY1         8.3020   15.8997   43.1236 C.3         1 MOL       0.0073
     46 CY2         8.7731   17.3074   42.6332 C.3         1 MOL       0.1257
     47 OY2         7.9425   17.8535   41.6060 O.3         1 MOL      -0.3835
     48 CY3        10.2527   17.2620   42.1554 C.3         1 MOL       0.1127
     49 OY3        10.5853   18.5463   41.6289 O.3         1 MOL      -0.3864
     50 CY4        11.2262   16.8019   43.2854 C.3         1 MOL       0.0953
     51 OY4        12.5074   16.5392   42.6715 O.3         1 MOL      -0.3424
     52 CY5        10.7461   15.4595   43.9451 C.3         1 MOL       0.0162
     53 CY6         9.2231   15.4722   44.3034 C.3         1 MOL       0.0002
     54 CY7        11.5725   15.0946   45.2096 C.3         1 MOL       0.0497
     55 OY7        12.9776   15.2534   45.0157 O.3         1 MOL      -0.3946
     56 H1          6.1310    8.4094   36.5696 H           1 MOL       0.0935
     57 H2          7.4776    8.3282   38.6026 H           1 MOL       0.0671
     58 H3          8.4862   10.6795   38.6644 H           1 MOL       0.0648
     59 H4          7.6759   12.2255   36.8313 H           1 MOL       0.0651
     60 H5          5.1170   11.9968   36.3582 H           1 MOL       0.0647
     61 H6          5.3056   10.5481   34.4151 H           1 MOL       0.0584
     62 H7          6.8960    9.9868   34.9366 H           1 MOL       0.0584
     63 H8          4.2411    7.6960   37.3343 H           1 MOL       0.2126
     64 H9          6.8735    9.1506   40.3746 H           1 MOL       0.2101
     65 H10         9.0264    9.0273   37.1552 H           1 MOL       0.2100
     66 H11         6.9987   11.6528   33.4327 H           1 MOL       0.2095
     67 H12         5.3684   13.8220   37.7458 H           1 MOL       0.0938
     68 H13         6.7600   15.7163   38.3388 H           1 MOL       0.0672
     69 H14         8.6624   13.6897   39.6450 H           1 MOL       0.0679
     70 H15         6.9341   15.9150   40.8583 H           1 MOL       0.0903
     71 H16         6.5918   12.8976   41.1497 H           1 MOL       0.0652
     72 H17         4.3774   13.5230   42.1513 H           1 MOL       0.0257
     73 H18         4.8526   15.2319   42.1063 H           1 MOL       0.0257
     74 H19         5.7381   14.0788   43.1301 H           1 MOL       0.0257
     75 H20         7.3095   14.7036   36.4475 H           1 MOL       0.2101
     76 H21         8.7320   16.5157   39.4844 H           1 MOL       0.2102
     77 H22         9.2481   14.7128   41.7435 H           1 MOL       0.2022
     78 H23         8.0702   13.9416   42.5773 H           1 MOL       0.2022
     79 H24        13.6886   17.5342   44.0917 H           1 MOL       0.0938
     80 H25        14.8584   19.0179   42.4817 H           1 MOL       0.0671
     81 H26        13.0334   17.7452   40.3551 H           1 MOL       0.0648
     82 H27        16.0551   17.7641   40.7102 H           1 MOL       0.0651
     83 H28        14.2723   15.3287   41.1643 H           1 MOL       0.0647
     84 H29        17.2145   15.7795   41.9017 H           1 MOL       0.0584
     85 H30        16.6972   14.9200   40.4381 H           1 MOL       0.0584
     86 H31        12.6026   19.9050   41.6681 H           1 MOL       0.2101
     87 H32        14.1592   19.1252   38.9869 H           1 MOL       0.2100
     88 H33        16.5973   14.1762   43.0973 H           1 MOL       0.2095
     89 H34        14.7377   14.8933   39.0160 H           1 MOL       0.0938
     90 H35        15.1395   14.4521   36.7315 H           1 MOL       0.0671
     91 H36        15.6486   17.4517   36.3081 H           1 MOL       0.0648
     92 H37        13.3255   15.7177   35.3165 H           1 MOL       0.0647
     93 H38        13.2494   17.9683   37.3925 H           1 MOL       0.0647
     94 H39        11.1069   15.9220   36.6335 H           1 MOL       0.0584
     95 H40        11.1216   17.6010   36.0724 H           1 MOL       0.0584
     96 H41        17.2711   14.8032   36.6665 H           1 MOL       0.2101
     97 H42        16.8481   16.1608   34.9703 H           1 MOL       0.2100
     98 H43        13.8818   18.4940   35.1659 H           1 MOL       0.2100
     99 H44        10.8390   18.3118   38.0783 H           1 MOL       0.2095
    100 H45         7.2840   16.0022   43.5150 H           1 MOL       0.0877
    101 H46         8.7123   18.0024   43.4817 H           1 MOL       0.0677
    102 H47         7.0753   17.9945   42.0331 H           1 MOL       0.2102
    103 H48        10.3407   16.5606   41.3228 H           1 MOL       0.0647
    104 H49        10.1695   19.1961   42.2383 H           1 MOL       0.2100
    105 H50        11.2770   17.5887   44.0459 H           1 MOL       0.0627
    106 H51        10.9019   14.6606   43.2140 H           1 MOL       0.0351
    107 H52         8.9214   14.4752   44.6441 H           1 MOL       0.0325
    108 H53         9.0549   16.1560   45.1398 H           1 MOL       0.0325
    109 H54        11.3972   14.0471   45.4739 H           1 MOL       0.0561
    110 H55        11.2603   15.7248   46.0499 H           1 MOL       0.0561
    111 H56        13.3214   15.3660   45.9295 H           1 MOL       0.2094
@<TRIPOS>BOND
     1     2     1   1
     2     1     7   1
     3    11     1   1
     4     3     2   1
     5     2     8   1
     6     4     3   1
     7     3     9   1
     8     4     5   1
     9    10     4   1
    10     5     6   1
    11     5    11   1
    12     6    12   1
    13    13    10   1
    14    14    13   1
    15    22    13   1
    16    15    14   1
    17    14    19   1
    18    16    15   1
    19    15    20   1
    20    16    17   1
    21    21    16   1
    22    17    18   1
    23    17    22   1
    24    45    21   1
    25    23    24   1
    26    23    32   1
    27    51    23   1
    28    24    25   1
    29    24    29   1
    30    25    26   1
    31    25    30   1
    32    27    26   1
    33    26    31   1
    34    27    28   1
    35    32    27   1
    36    28    33   1
    37    31    34   1
    38    34    35   1
    39    34    43   1
    40    35    36   1
    41    35    40   1
    42    36    37   1
    43    36    41   1
    44    38    37   1
    45    37    42   1
    46    38    39   1
    47    43    38   1
    48    39    44   1
    49    46    45   1
    50    45    53   1
    51    46    47   1
    52    48    46   1
    53    48    49   1
    54    50    48   1
    55    50    51   1
    56    50    52   1
    57    52    53   1
    58    52    54   1
    59    54    55   1
    60     1    56   1
    61     2    57   1
    62     3    58   1
    63     4    59   1
    64     5    60   1
    65     6    61   1
    66     6    62   1
    67     7    63   1
    68     8    64   1
    69     9    65   1
    70    12    66   1
    71    13    67   1
    72    14    68   1
    73    15    69   1
    74    16    70   1
    75    17    71   1
    76    18    72   1
    77    18    73   1
    78    18    74   1
    79    19    75   1
    80    20    76   1
    81    21    77   1
    82    21    78   1
    83    23    79   1
    84    24    80   1
    85    25    81   1
    86    26    82   1
    87    27    83   1
    88    28    84   1
    89    28    85   1
    90    29    86   1
    91    30    87   1
    92    33    88   1
    93    34    89   1
    94    35    90   1
    95    36    91   1
    96    37    92   1
    97    38    93   1
    98    39    94   1
    99    39    95   1
   100    40    96   1
   101    41    97   1
   102    42    98   1
   103    44    99   1
   104    45   100   1
   105    46   101   1
   106    47   102   1
   107    48   103   1
   108    49   104   1
   109    50   105   1
   110    52   106   1
   111    53   107   1
   112    53   108   1
   113    54   109   1
   114    54   110   1
   115    55   111   1
@<TRIPOS>SUBSTRUCTURE
     1  MOL      1

