@<TRIPOS>MOLECULE
1xd0_ligand_016
   111   115
SMALL
GAST_HUCK
****
This file was generated by PARSER (from files_GN.cpp)

@<TRIPOS>ATOM
      1 CR1         9.9979   14.9531   37.7099 C.3         1 MOL       0.1854
      2 CR2         9.8702   16.4874   37.5661 C.3         1 MOL       0.1339
      3 CR3         9.0984   17.0712   38.7813 C.3         1 MOL       0.1144
      4 CR4         7.7133   16.3666   38.9348 C.3         1 MOL       0.1184
      5 CR5         7.8584   14.8002   38.9055 C.3         1 MOL       0.1134
      6 CR6         6.5095   14.0455   38.7092 C.3         1 MOL       0.0730
      7 OR1        10.8079   14.5855   38.8271 O.3         1 MOL      -0.3649
      8 OR2        11.1667   17.0631   37.4329 O.3         1 MOL      -0.3841
      9 OR3         8.9012   18.4744   38.6005 O.3         1 MOL      -0.3864
     10 OR4         6.9571   16.9493   40.0266 O.3         1 MOL      -0.3401
     11 OR5         8.6902   14.3635   37.7975 O.3         1 MOL      -0.3407
     12 OR6         5.7493   13.9136   39.9148 O.3         1 MOL      -0.3924
     13 CV1         7.0192   16.4828   41.3949 C.3         1 MOL       0.1886
     14 CV2         6.5487   17.6325   42.3223 C.3         1 MOL       0.1370
     15 CV3         6.6597   17.2398   43.8250 C.3         1 MOL       0.1304
     16 CV4         8.0336   16.5911   44.2107 C.3         1 MOL       0.0334
     17 CV5         8.4009   15.5047   43.1566 C.3         1 MOL       0.1038
     18 CV6         7.7086   14.1426   43.3556 C.3         1 MOL      -0.0332
     19 OV2         7.2855   18.8273   42.0520 O.3         1 MOL      -0.3840
     20 OV3         5.5854   16.3620   44.1761 O.3         1 MOL      -0.3834
     21 NV4         9.0653   17.6662   44.3142 N.4         1 MOL       0.2370
     22 OV5         8.3204   16.0132   41.8128 O.3         1 MOL      -0.3401
     23 CQ1        13.9143   18.2907   41.1870 C.3         1 MOL       0.1883
     24 CQ2        13.6095   18.5941   39.7016 C.3         1 MOL       0.1341
     25 CQ3        13.8429   17.3474   38.8080 C.3         1 MOL       0.1144
     26 CQ4        15.2330   16.6823   39.0754 C.3         1 MOL       0.1184
     27 CQ5        15.3981   16.4197   40.6069 C.3         1 MOL       0.1134
     28 CQ6        16.8067   15.8977   41.0066 C.3         1 MOL       0.0730
     29 OQ2        12.2549   19.0446   39.5910 O.3         1 MOL      -0.3841
     30 OQ3        13.7409   17.7547   37.4440 O.3         1 MOL      -0.3864
     31 OQ4        15.5865   15.4688   38.3602 O.3         1 MOL      -0.3401
     32 OQ5        15.1799   17.6349   41.3630 O.3         1 MOL      -0.3405
     33 OQ6        16.9505   14.4979   40.7644 O.3         1 MOL      -0.3924
     34 CW1        14.7414   14.8384   37.3741 C.3         1 MOL       0.1884
     35 CW2        15.3076   13.4474   36.9893 C.3         1 MOL       0.1341
     36 CW3        16.6562   13.5903   36.2329 C.3         1 MOL       0.1141
     37 CW4        16.5414   14.5899   35.0454 C.3         1 MOL       0.1119
     38 CW5        15.8628   15.9235   35.4939 C.3         1 MOL       0.1130
     39 CW6        15.5441   16.8796   34.3150 C.3         1 MOL       0.0730
     40 OW2        15.4493   12.6483   38.1644 O.3         1 MOL      -0.3841
     41 OW3        17.0660   12.3065   35.7606 O.3         1 MOL      -0.3864
     42 OW4        17.8518   14.8210   34.5234 O.3         1 MOL      -0.3865
     43 OW5        14.6177   15.6421   36.1792 O.3         1 MOL      -0.3405
     44 OW6        16.5207   16.7763   33.2819 O.3         1 MOL      -0.3924
     45 CY1        10.2962   17.5198   45.1519 C.3         1 MOL       0.0073
     46 CY2        11.1999   18.7708   44.9511 C.3         1 MOL       0.1257
     47 OY2        10.4675   19.9512   45.2500 O.3         1 MOL      -0.3835
     48 CY3        11.8017   18.8205   43.5197 C.3         1 MOL       0.1127
     49 OY3        12.6616   19.9557   43.4447 O.3         1 MOL      -0.3864
     50 CY4        12.5762   17.5174   43.1342 C.3         1 MOL       0.0953
     51 OY4        12.8419   17.4946   41.7159 O.3         1 MOL      -0.3424
     52 CY5        11.7405   16.2361   43.4324 C.3         1 MOL       0.0162
     53 CY6        11.1524   16.2497   44.8776 C.3         1 MOL       0.0002
     54 CY7        12.5051   14.9133   43.1237 C.3         1 MOL       0.0497
     55 OY7        11.9138   14.2422   41.9998 O.3         1 MOL      -0.3946
     56 H1         10.4691   14.5521   36.8111 H           1 MOL       0.0935
     57 H2          9.3146   16.7069   36.6488 H           1 MOL       0.0671
     58 H3          9.6929   16.9264   39.6857 H           1 MOL       0.0648
     59 H4          7.1424   16.6329   38.0371 H           1 MOL       0.0651
     60 H5          8.3059   14.4404   39.8396 H           1 MOL       0.0647
     61 H6          6.7170   13.0310   38.3325 H           1 MOL       0.0584
     62 H7          5.8950   14.5707   37.9616 H           1 MOL       0.0584
     63 H8         11.7264   14.7948   38.5575 H           1 MOL       0.2126
     64 H9         11.0171   18.0230   37.3020 H           1 MOL       0.2101
     65 H10         9.7629   18.8417   38.3049 H           1 MOL       0.2100
     66 H11         4.9697   13.3821   39.6453 H           1 MOL       0.2095
     67 H12         6.2997   15.6681   41.4723 H           1 MOL       0.0938
     68 H13         5.5103   17.8562   42.0977 H           1 MOL       0.0672
     69 H14         6.5110   18.1446   44.4207 H           1 MOL       0.0679
     70 H15         7.9329   16.1368   45.2033 H           1 MOL       0.0903
     71 H16         9.4826   15.2797   43.2755 H           1 MOL       0.0652
     72 H17         8.0242   13.4484   42.5759 H           1 MOL       0.0257
     73 H18         6.6252   14.2222   43.3194 H           1 MOL       0.0257
     74 H19         7.9918   13.7267   44.3228 H           1 MOL       0.0257
     75 H20         8.2243   18.5581   41.9845 H           1 MOL       0.2101
     76 H21         5.5277   16.4052   45.1582 H           1 MOL       0.2102
     77 H22         8.5721   18.4605   44.7165 H           1 MOL       0.2022
     78 H23         9.3457   17.9108   43.3664 H           1 MOL       0.2022
     79 H24        13.9921   19.2456   41.6984 H           1 MOL       0.0938
     80 H25        14.2661   19.3986   39.3581 H           1 MOL       0.0671
     81 H26        13.0605   16.6167   39.0251 H           1 MOL       0.0648
     82 H27        15.9960   17.4103   38.7914 H           1 MOL       0.0651
     83 H28        14.6765   15.6574   40.9145 H           1 MOL       0.0647
     84 H29        16.9844   16.0710   42.0746 H           1 MOL       0.0584
     85 H30        17.5734   16.4359   40.4426 H           1 MOL       0.0584
     86 H31        12.1221   19.3905   38.6810 H           1 MOL       0.2101
     87 H32        12.9277   18.2985   37.3977 H           1 MOL       0.2100
     88 H33        16.3317   14.0737   41.3971 H           1 MOL       0.2095
     89 H34        13.7469   14.6753   37.7952 H           1 MOL       0.0938
     90 H35        14.5836   12.9548   36.3328 H           1 MOL       0.0671
     91 H36        17.4217   13.9468   36.9287 H           1 MOL       0.0648
     92 H37        15.9372   14.1262   34.2597 H           1 MOL       0.0647
     93 H38        16.5359   16.4619   36.1719 H           1 MOL       0.0647
     94 H39        15.5416   17.9115   34.6750 H           1 MOL       0.0584
     95 H40        14.5590   16.6584   33.8963 H           1 MOL       0.0584
     96 H41        15.2179   11.7336   37.8949 H           1 MOL       0.2101
     97 H42        17.9905   12.4239   35.4540 H           1 MOL       0.2100
     98 H43        17.7317   15.4252   33.7618 H           1 MOL       0.2100
     99 H44        16.2391   17.4151   32.5940 H           1 MOL       0.2095
    100 H45         9.9780   17.4836   46.1981 H           1 MOL       0.0877
    101 H46        12.0157   18.7259   45.6654 H           1 MOL       0.0677
    102 H47        10.9824   20.6927   44.8745 H           1 MOL       0.2102
    103 H48        10.9992   18.9820   42.7942 H           1 MOL       0.0647
    104 H49        12.1520   20.6485   42.9667 H           1 MOL       0.2100
    105 H50        13.5064   17.4615   43.7063 H           1 MOL       0.0627
    106 H51        10.8652   16.2511   42.7347 H           1 MOL       0.0351
    107 H52        10.5562   15.3509   45.0703 H           1 MOL       0.0325
    108 H53        11.9916   16.2148   45.5867 H           1 MOL       0.0325
    109 H54        12.4625   14.2160   43.9717 H           1 MOL       0.0561
    110 H55        13.5661   15.1032   42.9037 H           1 MOL       0.0561
    111 H56        12.2708   13.3265   42.0368 H           1 MOL       0.2094
@<TRIPOS>BOND
     1     2     1   1
     2     1     7   1
     3    11     1   1
     4     3     2   1
     5     2     8   1
     6     4     3   1
     7     3     9   1
     8     4     5   1
     9    10     4   1
    10     5     6   1
    11     5    11   1
    12     6    12   1
    13    13    10   1
    14    14    13   1
    15    22    13   1
    16    15    14   1
    17    14    19   1
    18    16    15   1
    19    15    20   1
    20    16    17   1
    21    21    16   1
    22    17    18   1
    23    17    22   1
    24    45    21   1
    25    23    24   1
    26    23    32   1
    27    51    23   1
    28    24    25   1
    29    24    29   1
    30    25    26   1
    31    25    30   1
    32    27    26   1
    33    26    31   1
    34    27    28   1
    35    32    27   1
    36    28    33   1
    37    31    34   1
    38    34    35   1
    39    34    43   1
    40    35    36   1
    41    35    40   1
    42    36    37   1
    43    36    41   1
    44    38    37   1
    45    37    42   1
    46    38    39   1
    47    43    38   1
    48    39    44   1
    49    46    45   1
    50    45    53   1
    51    46    47   1
    52    48    46   1
    53    48    49   1
    54    50    48   1
    55    50    51   1
    56    50    52   1
    57    52    53   1
    58    52    54   1
    59    54    55   1
    60     1    56   1
    61     2    57   1
    62     3    58   1
    63     4    59   1
    64     5    60   1
    65     6    61   1
    66     6    62   1
    67     7    63   1
    68     8    64   1
    69     9    65   1
    70    12    66   1
    71    13    67   1
    72    14    68   1
    73    15    69   1
    74    16    70   1
    75    17    71   1
    76    18    72   1
    77    18    73   1
    78    18    74   1
    79    19    75   1
    80    20    76   1
    81    21    77   1
    82    21    78   1
    83    23    79   1
    84    24    80   1
    85    25    81   1
    86    26    82   1
    87    27    83   1
    88    28    84   1
    89    28    85   1
    90    29    86   1
    91    30    87   1
    92    33    88   1
    93    34    89   1
    94    35    90   1
    95    36    91   1
    96    37    92   1
    97    38    93   1
    98    39    94   1
    99    39    95   1
   100    40    96   1
   101    41    97   1
   102    42    98   1
   103    44    99   1
   104    45   100   1
   105    46   101   1
   106    47   102   1
   107    48   103   1
   108    49   104   1
   109    50   105   1
   110    52   106   1
   111    53   107   1
   112    53   108   1
   113    54   109   1
   114    54   110   1
   115    55   111   1
@<TRIPOS>SUBSTRUCTURE
     1  MOL      1

