@<TRIPOS>MOLECULE
1xd0_ligand_010
   111   115
SMALL
GAST_HUCK
****
This file was generated by PARSER (from files_GN.cpp)

@<TRIPOS>ATOM
      1 CR1         1.0940   16.2436   40.4127 C.3         1 MOL       0.1854
      2 CR2         1.4036   15.1721   41.4955 C.3         1 MOL       0.1339
      3 CR3         2.7393   15.5001   42.2068 C.3         1 MOL       0.1144
      4 CR4         3.8882   15.7040   41.1897 C.3         1 MOL       0.1184
      5 CR5         3.4766   16.7705   40.1268 C.3         1 MOL       0.1134
      6 CR6         4.5110   16.9195   38.9851 C.3         1 MOL       0.0730
      7 OR1         0.7406   17.4996   40.9949 O.3         1 MOL      -0.3649
      8 OR2         0.3689   15.1103   42.4734 O.3         1 MOL      -0.3841
      9 OR3         3.0604   14.4455   43.1109 O.3         1 MOL      -0.3864
     10 OR4         5.0513   16.1047   41.9530 O.3         1 MOL      -0.3401
     11 OR5         2.2121   16.4094   39.5137 O.3         1 MOL      -0.3407
     12 OR6         5.1371   15.6773   38.6734 O.3         1 MOL      -0.3924
     13 CV1         6.2272   15.2624   41.9439 C.3         1 MOL       0.1886
     14 CV2         6.6079   14.8160   43.3861 C.3         1 MOL       0.1370
     15 CV3         7.2314   15.9793   44.2144 C.3         1 MOL       0.1304
     16 CV4         8.3833   16.6629   43.4132 C.3         1 MOL       0.0334
     17 CV5         7.8108   17.1175   42.0280 C.3         1 MOL       0.1038
     18 CV6         8.8188   17.8339   41.0903 C.3         1 MOL      -0.0332
     19 OV2         5.4550   14.2729   44.0363 O.3         1 MOL      -0.3840
     20 OV3         7.7172   15.4237   45.4390 O.3         1 MOL      -0.3834
     21 NV4         9.0015   17.8092   44.1607 N.4         1 MOL       0.2370
     22 OV5         7.3224   15.9540   41.3162 O.3         1 MOL      -0.3401
     23 CQ1        13.8374   17.4528   40.7032 C.3         1 MOL       0.1883
     24 CQ2        13.4741   18.2227   39.3895 C.3         1 MOL       0.1341
     25 CQ3        14.1296   17.5610   38.1502 C.3         1 MOL       0.1144
     26 CQ4        13.8055   16.0362   38.0445 C.3         1 MOL       0.1184
     27 CQ5        13.9101   15.3446   39.4537 C.3         1 MOL       0.1134
     28 CQ6        14.7070   14.0114   39.4207 C.3         1 MOL       0.0730
     29 OQ2        12.0574   18.2900   39.1943 O.3         1 MOL      -0.3841
     30 OQ3        15.5469   17.7239   38.2047 O.3         1 MOL      -0.3864
     31 OQ4        12.5123   15.6839   37.4934 O.3         1 MOL      -0.3401
     32 OQ5        14.5130   16.1970   40.4599 O.3         1 MOL      -0.3405
     33 OQ6        16.1094   14.2492   39.5669 O.3         1 MOL      -0.3924
     34 CW1        11.9732   16.3752   36.3476 C.3         1 MOL       0.1884
     35 CW2        10.8362   15.5375   35.7020 C.3         1 MOL       0.1341
     36 CW3        11.4207   14.3275   34.9179 C.3         1 MOL       0.1141
     37 CW4        12.4905   14.8011   33.8964 C.3         1 MOL       0.1119
     38 CW5        13.5662   15.6751   34.6058 C.3         1 MOL       0.1130
     39 CW6        14.5630   16.3264   33.6095 C.3         1 MOL       0.0730
     40 OW2         9.8921   15.1039   36.6831 O.3         1 MOL      -0.3841
     41 OW3        10.3816   13.6317   34.2256 O.3         1 MOL      -0.3864
     42 OW4        13.0949   13.6693   33.2622 O.3         1 MOL      -0.3865
     43 OW5        12.9488   16.7495   35.3475 O.3         1 MOL      -0.3405
     44 OW6        15.7145   16.8253   34.2916 O.3         1 MOL      -0.3924
     45 CY1        10.2975   17.7173   44.9141 C.3         1 MOL       0.0073
     46 CY2        11.2437   18.9025   44.5316 C.3         1 MOL       0.1257
     47 OY2        10.5462   20.1361   44.7270 O.3         1 MOL      -0.3835
     48 CY3        11.7932   18.7462   43.0813 C.3         1 MOL       0.1127
     49 OY3        12.6931   19.8162   42.7806 O.3         1 MOL      -0.3864
     50 CY4        12.5379   17.3910   42.8663 C.3         1 MOL       0.0953
     51 OY4        12.6495   17.1501   41.4539 O.3         1 MOL      -0.3424
     52 CY5        11.7321   16.1662   43.4064 C.3         1 MOL       0.0162
     53 CY6        11.1317   16.4016   44.8215 C.3         1 MOL       0.0002
     54 CY7        12.5542   14.8365   43.3764 C.3         1 MOL       0.0497
     55 OY7        12.5534   14.2346   42.0846 O.3         1 MOL      -0.3946
     56 H1          0.2432   15.9063   39.8178 H           1 MOL       0.0935
     57 H2          1.4905   14.1932   41.0126 H           1 MOL       0.0671
     58 H3          2.6130   16.4088   42.8021 H           1 MOL       0.0648
     59 H4          4.0283   14.7500   40.6672 H           1 MOL       0.0651
     60 H5          3.3718   17.7470   40.6112 H           1 MOL       0.0647
     61 H6          5.2721   17.6470   39.2636 H           1 MOL       0.0584
     62 H7          4.0137   17.2861   38.0840 H           1 MOL       0.0584
     63 H8         -0.0877   17.3312   41.4932 H           1 MOL       0.2126
     64 H9         -0.1889   14.3435   42.2339 H           1 MOL       0.2101
     65 H10         3.9783   14.1773   42.8890 H           1 MOL       0.2100
     66 H11         5.7774   15.8833   37.9581 H           1 MOL       0.2095
     67 H12         6.0706   14.3428   41.3721 H           1 MOL       0.0938
     68 H13         7.3511   14.0087   43.2988 H           1 MOL       0.0672
     69 H14         6.4465   16.7116   44.4501 H           1 MOL       0.0679
     70 H15         9.1082   15.8730   43.2085 H           1 MOL       0.0903
     71 H16         6.9826   17.8172   42.1952 H           1 MOL       0.0652
     72 H17         8.8576   18.9039   41.3236 H           1 MOL       0.0257
     73 H18         8.4950   17.7468   40.0438 H           1 MOL       0.0257
     74 H19         9.8246   17.4101   41.1862 H           1 MOL       0.0257
     75 H20         5.7899   13.5059   44.5479 H           1 MOL       0.2101
     76 H21         7.9057   16.1914   46.0125 H           1 MOL       0.2102
     77 H22         8.2987   18.1143   44.8390 H           1 MOL       0.2022
     78 H23         9.0859   18.5885   43.5072 H           1 MOL       0.2022
     79 H24        14.5329   18.0653   41.2833 H           1 MOL       0.0938
     80 H25        13.8317   19.2538   39.4683 H           1 MOL       0.0671
     81 H26        13.8107   18.0925   37.2517 H           1 MOL       0.0648
     82 H27        14.5544   15.6043   37.3766 H           1 MOL       0.0651
     83 H28        12.8999   15.0888   39.7977 H           1 MOL       0.0647
     84 H29        14.5260   13.4842   38.4794 H           1 MOL       0.0584
     85 H30        14.3807   13.3668   40.2433 H           1 MOL       0.0584
     86 H31        11.9225   18.9302   38.4660 H           1 MOL       0.2101
     87 H32        15.8495   17.2163   38.9869 H           1 MOL       0.2100
     88 H33        16.5251   13.3622   39.5126 H           1 MOL       0.2095
     89 H34        11.5139   17.2978   36.7119 H           1 MOL       0.0938
     90 H35        10.2916   16.1754   34.9933 H           1 MOL       0.0671
     91 H36        11.8803   13.6305   35.6281 H           1 MOL       0.0648
     92 H37        12.0000   15.3986   33.1196 H           1 MOL       0.0647
     93 H38        14.1452   15.0400   35.2802 H           1 MOL       0.0647
     94 H39        14.0837   17.1545   33.0775 H           1 MOL       0.0584
     95 H40        14.9044   15.5905   32.8754 H           1 MOL       0.0584
     96 H41        10.4089   14.5802   37.3314 H           1 MOL       0.2101
     97 H42         9.8699   13.1720   34.9230 H           1 MOL       0.2100
     98 H43        13.5348   13.1706   33.9850 H           1 MOL       0.2100
     99 H44        15.4167   17.6459   34.7387 H           1 MOL       0.2095
    100 H45        10.0260   17.8331   45.9660 H           1 MOL       0.0877
    101 H46        12.0915   18.9168   45.2302 H           1 MOL       0.0677
    102 H47        11.1867   20.8443   44.5059 H           1 MOL       0.2102
    103 H48        10.9579   18.8220   42.3777 H           1 MOL       0.0647
    104 H49        12.1297   20.5687   42.5099 H           1 MOL       0.2100
    105 H50        13.5128   17.4177   43.3645 H           1 MOL       0.0627
    106 H51        10.9003   16.0408   42.7160 H           1 MOL       0.0351
    107 H52        10.4992   15.5527   45.1034 H           1 MOL       0.0325
    108 H53        11.9484   16.4318   45.5499 H           1 MOL       0.0325
    109 H54        12.1316   14.1042   44.0697 H           1 MOL       0.0561
    110 H55        13.5925   15.0251   43.6753 H           1 MOL       0.0561
    111 H56        11.6148   14.0004   41.9221 H           1 MOL       0.2094
@<TRIPOS>BOND
     1     2     1   1
     2     1     7   1
     3    11     1   1
     4     3     2   1
     5     2     8   1
     6     4     3   1
     7     3     9   1
     8     4     5   1
     9    10     4   1
    10     5     6   1
    11     5    11   1
    12     6    12   1
    13    13    10   1
    14    14    13   1
    15    22    13   1
    16    15    14   1
    17    14    19   1
    18    16    15   1
    19    15    20   1
    20    16    17   1
    21    21    16   1
    22    17    18   1
    23    17    22   1
    24    45    21   1
    25    23    24   1
    26    23    32   1
    27    51    23   1
    28    24    25   1
    29    24    29   1
    30    25    26   1
    31    25    30   1
    32    27    26   1
    33    26    31   1
    34    27    28   1
    35    32    27   1
    36    28    33   1
    37    31    34   1
    38    34    35   1
    39    34    43   1
    40    35    36   1
    41    35    40   1
    42    36    37   1
    43    36    41   1
    44    38    37   1
    45    37    42   1
    46    38    39   1
    47    43    38   1
    48    39    44   1
    49    46    45   1
    50    45    53   1
    51    46    47   1
    52    48    46   1
    53    48    49   1
    54    50    48   1
    55    50    51   1
    56    50    52   1
    57    52    53   1
    58    52    54   1
    59    54    55   1
    60     1    56   1
    61     2    57   1
    62     3    58   1
    63     4    59   1
    64     5    60   1
    65     6    61   1
    66     6    62   1
    67     7    63   1
    68     8    64   1
    69     9    65   1
    70    12    66   1
    71    13    67   1
    72    14    68   1
    73    15    69   1
    74    16    70   1
    75    17    71   1
    76    18    72   1
    77    18    73   1
    78    18    74   1
    79    19    75   1
    80    20    76   1
    81    21    77   1
    82    21    78   1
    83    23    79   1
    84    24    80   1
    85    25    81   1
    86    26    82   1
    87    27    83   1
    88    28    84   1
    89    28    85   1
    90    29    86   1
    91    30    87   1
    92    33    88   1
    93    34    89   1
    94    35    90   1
    95    36    91   1
    96    37    92   1
    97    38    93   1
    98    39    94   1
    99    39    95   1
   100    40    96   1
   101    41    97   1
   102    42    98   1
   103    44    99   1
   104    45   100   1
   105    46   101   1
   106    47   102   1
   107    48   103   1
   108    49   104   1
   109    50   105   1
   110    52   106   1
   111    53   107   1
   112    53   108   1
   113    54   109   1
   114    54   110   1
   115    55   111   1
@<TRIPOS>SUBSTRUCTURE
     1  MOL      1

