@<TRIPOS>MOLECULE
1yc1_ligand_004
    42    45
SMALL
GAST_HUCK
****
This file was generated by PARSER (from files_GN.cpp)

@<TRIPOS>ATOM
      1 C15         5.2197   40.6044   -4.4988 C.ar        1 MOL      -0.0397
      2 C12         5.6640   41.8282   -3.9740 C.ar        1 MOL       0.1203
      3 O17         5.5559   43.0498   -4.5328 O.3         1 MOL      -0.2917
      4 C19         6.3344   43.8620   -3.6348 C.3         1 MOL       0.1865
      5 O18         6.6669   43.1443   -2.4314 O.3         1 MOL      -0.2923
      6 C16         6.3082   41.8851   -2.7496 C.ar        1 MOL       0.1209
      7 C22         6.5010   40.7218   -1.9878 C.ar        1 MOL      -0.0435
      8 C20         6.0238   39.4951   -2.4905 C.ar        1 MOL      -0.0793
      9 C8          5.3922   39.3969   -3.7662 C.ar        1 MOL      -0.0502
     10 C4          4.9380   38.1294   -4.2697 C.2         1 MOL       0.0106
     11 C1          4.0084   37.8889   -5.2901 C.2         1 MOL       0.1253
     12 C7          3.3250   38.7776   -6.1212 C.2         1 MOL       0.0928
     13 O21         1.9800   38.8150   -6.0686 O.co2       1 MOL      -0.5584
     14 O23         3.9273   39.1400   -7.2788 O.co2       1 MOL      -0.5584
     15 N5          3.8148   36.5679   -5.3830 N.pl3       1 MOL      -0.2108
     16 C2          5.2678   36.8334   -3.8318 C.2         1 MOL       0.0398
     17 N3          4.5511   35.9386   -4.5274 N.2         1 MOL      -0.2144
     18 C6          6.2127   36.4146   -2.8714 C.ar        1 MOL       0.0020
     19 C10         5.7761   35.6707   -1.7526 C.ar        1 MOL      -0.0679
     20 C14         6.6658   35.3216   -0.7076 C.ar        1 MOL      -0.0234
     21 C26         6.1613   34.5850    0.4881 C.3         1 MOL      -0.0285
     22 C27         6.2434   35.4199    1.7874 C.3         1 MOL      -0.0583
     23 C13         8.0340   35.6836   -0.8356 C.ar        1 MOL       0.0829
     24 O25         8.9560   35.3647    0.1070 O.3         1 MOL      -0.3383
     25 C11         8.4787   36.3871   -1.9704 C.ar        1 MOL      -0.0091
     26 C9          7.5812   36.7415   -2.9940 C.ar        1 MOL       0.0835
     27 O24         8.0616   37.3815   -4.0951 O.3         1 MOL      -0.3373
     28 H1          4.7899   40.6103   -5.4230 H           1 MOL       0.0474
     29 H2          5.7702   44.7607   -3.3767 H           1 MOL       0.0973
     30 H3          7.2548   44.1619   -4.1425 H           1 MOL       0.0973
     31 H4          6.9641   40.7749   -1.0773 H           1 MOL       0.0506
     32 H5          6.1272   38.6742   -1.8916 H           1 MOL       0.0470
     33 H6          3.2124   36.1355   -6.0106 H           1 MOL       0.2580
     34 H7          4.7850   35.4208   -1.6773 H           1 MOL       0.0500
     35 H8          6.7349   33.6634    0.6144 H           1 MOL       0.0381
     36 H9          5.1157   34.2894    0.3558 H           1 MOL       0.0381
     37 H10         5.8587   34.8370    2.6268 H           1 MOL       0.0247
     38 H11         5.6446   36.3297    1.6957 H           1 MOL       0.0247
     39 H12         7.2753   35.6971    2.0091 H           1 MOL       0.0247
     40 H13         9.0736   34.3929    0.0412 H           1 MOL       0.2463
     41 H14         9.4665   36.6241   -2.0604 H           1 MOL       0.0450
     42 H15         7.7550   36.8412   -4.8582 H           1 MOL       0.2473
@<TRIPOS>BOND
     1     1     2  ar
     2     1     9  ar
     3     2     3   1
     4     2     6  ar
     5     3     4   1
     6     4     5   1
     7     5     6   1
     8     6     7  ar
     9     7     8  ar
    10     8     9  ar
    11     9    10   1
    12    10    11   2
    13    10    16   1
    14    11    12   1
    15    11    15   1
    16    12    13  ar
    17    12    14  ar
    18    15    17   1
    19    16    17   2
    20    16    18   1
    21    18    19  ar
    22    18    26  ar
    23    19    20  ar
    24    20    21   1
    25    20    23  ar
    26    21    22   1
    27    23    24   1
    28    23    25  ar
    29    25    26  ar
    30    26    27   1
    31     1    28   1
    32     4    29   1
    33     4    30   1
    34     7    31   1
    35     8    32   1
    36    15    33   1
    37    19    34   1
    38    21    35   1
    39    21    36   1
    40    22    37   1
    41    22    38   1
    42    22    39   1
    43    24    40   1
    44    25    41   1
    45    27    42   1
@<TRIPOS>SUBSTRUCTURE
     1  MOL      1

