@<TRIPOS>MOLECULE
1yc1_ligand_044
    42    45
SMALL
GAST_HUCK
****
This file was generated by PARSER (from files_GN.cpp)

@<TRIPOS>ATOM
      1 C15         5.0308   36.0440   -3.2175 C.ar        1 MOL      -0.0397
      2 C12         5.8038   37.0198   -3.8626 C.ar        1 MOL       0.1203
      3 O17         5.8377   37.2798   -5.1814 O.3         1 MOL      -0.2917
      4 C19         6.8354   38.3219   -5.2511 C.3         1 MOL       0.1865
      5 O18         7.3874   38.6385   -3.9584 O.3         1 MOL      -0.2923
      6 C16         6.6853   37.8208   -3.1528 C.ar        1 MOL       0.1209
      7 C22         6.7757   37.7125   -1.7532 C.ar        1 MOL      -0.0435
      8 C20         5.9725   36.7641   -1.0780 C.ar        1 MOL      -0.0793
      9 C8          5.1224   35.8914   -1.8090 C.ar        1 MOL      -0.0502
     10 C4          4.4253   34.8168   -1.1860 C.2         1 MOL       0.0106
     11 C1          4.9588   33.7587   -0.4417 C.2         1 MOL       0.1253
     12 C7          6.2692   33.4744    0.0118 C.2         1 MOL       0.0928
     13 O21         7.2600   34.4062   -0.0104 O.co2       1 MOL      -0.5584
     14 O23         6.5668   32.2493    0.5199 O.co2       1 MOL      -0.5584
     15 N5          3.9566   32.8787   -0.2693 N.pl3       1 MOL      -0.2108
     16 C2          3.0787   34.4758   -1.3885 C.2         1 MOL       0.0398
     17 N3          2.8576   33.2781   -0.8184 N.2         1 MOL      -0.2144
     18 C6          2.0759   35.2112   -2.0643 C.ar        1 MOL       0.0020
     19 C10         1.8558   36.5667   -1.7283 C.ar        1 MOL      -0.0679
     20 C14         0.8997   37.3569   -2.4102 C.ar        1 MOL      -0.0234
     21 C26         0.7097   38.7846   -2.0160 C.3         1 MOL      -0.0285
     22 C27         1.9690   39.6694   -2.1539 C.3         1 MOL      -0.0583
     23 C13         0.1249   36.7479   -3.4284 C.ar        1 MOL       0.0829
     24 O25        -0.8131   37.4553   -4.1182 O.3         1 MOL      -0.3383
     25 C11         0.3037   35.3827   -3.7357 C.ar        1 MOL      -0.0091
     26 C9          1.2702   34.6144   -3.0641 C.ar        1 MOL       0.0835
     27 O24         1.4137   33.3174   -3.4456 O.3         1 MOL      -0.3373
     28 H1          4.4200   35.4468   -3.7748 H           1 MOL       0.0474
     29 H2          6.3800   39.2184   -5.6807 H           1 MOL       0.0973
     30 H3          7.6432   38.0012   -5.9087 H           1 MOL       0.0973
     31 H4          7.4332   38.3009   -1.2308 H           1 MOL       0.0506
     32 H5          6.0193   36.7062   -0.0547 H           1 MOL       0.0470
     33 H6          4.0540   32.0252    0.1930 H           1 MOL       0.2580
     34 H7          2.3878   36.9823   -0.9592 H           1 MOL       0.0500
     35 H8          0.3690   38.8129   -0.9790 H           1 MOL       0.0381
     36 H9         -0.0768   39.2533   -2.6185 H           1 MOL       0.0381
     37 H10         1.6948   40.7166   -1.9815 H           1 MOL       0.0247
     38 H11         2.3961   39.5863   -3.1572 H           1 MOL       0.0247
     39 H12         2.7234   39.3917   -1.4198 H           1 MOL       0.0247
     40 H13        -1.0554   36.9175   -4.9066 H           1 MOL       0.2463
     41 H14        -0.2693   34.9449   -4.4635 H           1 MOL       0.0450
     42 H15         2.3352   33.2404   -3.7611 H           1 MOL       0.2473
@<TRIPOS>BOND
     1     1     2  ar
     2     1     9  ar
     3     2     3   1
     4     2     6  ar
     5     3     4   1
     6     4     5   1
     7     5     6   1
     8     6     7  ar
     9     7     8  ar
    10     8     9  ar
    11     9    10   1
    12    10    11   2
    13    10    16   1
    14    11    12   1
    15    11    15   1
    16    12    13  ar
    17    12    14  ar
    18    15    17   1
    19    16    17   2
    20    16    18   1
    21    18    19  ar
    22    18    26  ar
    23    19    20  ar
    24    20    21   1
    25    20    23  ar
    26    21    22   1
    27    23    24   1
    28    23    25  ar
    29    25    26  ar
    30    26    27   1
    31     1    28   1
    32     4    29   1
    33     4    30   1
    34     7    31   1
    35     8    32   1
    36    15    33   1
    37    19    34   1
    38    21    35   1
    39    21    36   1
    40    22    37   1
    41    22    38   1
    42    22    39   1
    43    24    40   1
    44    25    41   1
    45    27    42   1
@<TRIPOS>SUBSTRUCTURE
     1  MOL      1

