@<TRIPOS>MOLECULE
1yc1_ligand_012
    42    45
SMALL
GAST_HUCK
****
This file was generated by PARSER (from files_GN.cpp)

@<TRIPOS>ATOM
      1 C15         0.1185   37.2809  -11.7233 C.ar        1 MOL      -0.0397
      2 C12        -0.2199   38.6236  -11.9620 C.ar        1 MOL       0.1203
      3 O17        -1.4002   39.2218  -11.7281 O.3         1 MOL      -0.2917
      4 C19        -1.1927   40.5143  -12.3244 C.3         1 MOL       0.1865
      5 O18         0.2002   40.7454  -12.6140 O.3         1 MOL      -0.2923
      6 C16         0.7136   39.5109  -12.4752 C.ar        1 MOL       0.1209
      7 C22         2.0135   39.0918  -12.7901 C.ar        1 MOL      -0.0435
      8 C20         2.3734   37.7506  -12.5480 C.ar        1 MOL      -0.0793
      9 C8          1.4292   36.8315  -12.0166 C.ar        1 MOL      -0.0502
     10 C4          1.7793   35.4650  -11.8440 C.2         1 MOL       0.0106
     11 C1          1.9425   34.7996  -10.6253 C.2         1 MOL       0.1253
     12 C7          1.7875   35.3050   -9.3275 C.2         1 MOL       0.0928
     13 O21         2.8446   35.3013   -8.4838 O.co2       1 MOL      -0.5584
     14 O23         0.5584   35.6085   -8.8283 O.co2       1 MOL      -0.5584
     15 N5          2.4118   33.5766  -10.9138 N.pl3       1 MOL      -0.2108
     16 C2          2.1915   34.5634  -12.8257 C.2         1 MOL       0.0398
     17 N3          2.5632   33.4337  -12.1907 N.2         1 MOL      -0.2144
     18 C6          2.2884   34.7479  -14.2330 C.ar        1 MOL       0.0020
     19 C10         1.3091   35.4880  -14.9299 C.ar        1 MOL      -0.0679
     20 C14         1.3421   35.6606  -16.3338 C.ar        1 MOL      -0.0234
     21 C26         0.3167   36.5208  -16.9920 C.3         1 MOL      -0.0285
     22 C27        -1.1391   36.0814  -16.6952 C.3         1 MOL      -0.0583
     23 C13         2.3860   35.0274  -17.0564 C.ar        1 MOL       0.0829
     24 O25         2.4718   35.1031  -18.4133 O.3         1 MOL      -0.3383
     25 C11         3.3711   34.2791  -16.3849 C.ar        1 MOL      -0.0091
     26 C9          3.3348   34.1579  -14.9826 C.ar        1 MOL       0.0835
     27 O24         4.3623   33.4704  -14.4197 O.3         1 MOL      -0.3373
     28 H1         -0.5907   36.6363  -11.3653 H           1 MOL       0.0474
     29 H2         -1.5604   41.2935  -11.6506 H           1 MOL       0.0973
     30 H3         -1.7625   40.5719  -13.2588 H           1 MOL       0.0973
     31 H4          2.6895   39.7445  -13.1754 H           1 MOL       0.0506
     32 H5          3.3226   37.4390  -12.7775 H           1 MOL       0.0470
     33 H6          2.6356   32.9087  -10.2558 H           1 MOL       0.2580
     34 H7          0.5432   35.8982  -14.4074 H           1 MOL       0.0500
     35 H8          0.4411   36.5232  -18.0833 H           1 MOL       0.0381
     36 H9          0.4568   37.5505  -16.6541 H           1 MOL       0.0381
     37 H10        -1.8274   36.7156  -17.2563 H           1 MOL       0.0247
     38 H11        -1.3675   36.1899  -15.6316 H           1 MOL       0.0247
     39 H12        -1.2819   35.0346  -16.9920 H           1 MOL       0.0247
     40 H13         1.6842   34.5939  -18.7265 H           1 MOL       0.2463
     41 H14         4.1242   33.8499  -16.9204 H           1 MOL       0.0450
     42 H15         4.7805   34.1067  -13.7936 H           1 MOL       0.2473
@<TRIPOS>BOND
     1     1     2  ar
     2     1     9  ar
     3     2     3   1
     4     2     6  ar
     5     3     4   1
     6     4     5   1
     7     5     6   1
     8     6     7  ar
     9     7     8  ar
    10     8     9  ar
    11     9    10   1
    12    10    11   2
    13    10    16   1
    14    11    12   1
    15    11    15   1
    16    12    13  ar
    17    12    14  ar
    18    15    17   1
    19    16    17   2
    20    16    18   1
    21    18    19  ar
    22    18    26  ar
    23    19    20  ar
    24    20    21   1
    25    20    23  ar
    26    21    22   1
    27    23    24   1
    28    23    25  ar
    29    25    26  ar
    30    26    27   1
    31     1    28   1
    32     4    29   1
    33     4    30   1
    34     7    31   1
    35     8    32   1
    36    15    33   1
    37    19    34   1
    38    21    35   1
    39    21    36   1
    40    22    37   1
    41    22    38   1
    42    22    39   1
    43    24    40   1
    44    25    41   1
    45    27    42   1
@<TRIPOS>SUBSTRUCTURE
     1  MOL      1

