@<TRIPOS>MOLECULE
1yc1_ligand_006
    42    45
SMALL
GAST_HUCK
****
This file was generated by PARSER (from files_GN.cpp)

@<TRIPOS>ATOM
      1 C15         5.7113   36.3880   -0.4465 C.ar        1 MOL      -0.0397
      2 C12         7.0909   36.1108   -0.4662 C.ar        1 MOL       0.1203
      3 O17         7.7122   35.0428    0.0594 O.3         1 MOL      -0.2917
      4 C19         9.0995   35.3568   -0.1744 C.3         1 MOL       0.1865
      5 O18         9.2567   36.5605   -0.9498 O.3         1 MOL      -0.2923
      6 C16         7.9865   36.9933   -1.0511 C.ar        1 MOL       0.1209
      7 C22         7.5391   38.1769   -1.6549 C.ar        1 MOL      -0.0435
      8 C20         6.1569   38.4630   -1.6526 C.ar        1 MOL      -0.0793
      9 C8          5.2287   37.5814   -1.0350 C.ar        1 MOL      -0.0502
     10 C4          3.8476   37.9130   -0.9832 C.2         1 MOL       0.0106
     11 C1          3.0472   38.0570    0.1514 C.2         1 MOL       0.1253
     12 C7          3.3720   37.8756    1.4964 C.2         1 MOL       0.0928
     13 O21         3.3621   36.6418    2.0560 O.co2       1 MOL      -0.5584
     14 O23         3.5907   38.9505    2.2782 O.co2       1 MOL      -0.5584
     15 N5          1.8639   38.5485   -0.2663 N.pl3       1 MOL      -0.2108
     16 C2          3.0477   38.3302   -2.0451 C.2         1 MOL       0.0398
     17 N3          1.8530   38.7043   -1.5521 N.2         1 MOL      -0.2144
     18 C6          3.3677   38.3795   -3.4167 C.ar        1 MOL       0.0020
     19 C10         3.3949   39.6184   -4.0976 C.ar        1 MOL      -0.0679
     20 C14         3.7516   39.7020   -5.4681 C.ar        1 MOL      -0.0234
     21 C26         3.7951   41.0379   -6.1328 C.3         1 MOL      -0.0285
     22 C27         2.3866   41.6653   -6.2769 C.3         1 MOL      -0.0583
     23 C13         4.0444   38.5034   -6.1608 C.ar        1 MOL       0.0829
     24 O25         4.3939   38.4964   -7.4703 O.3         1 MOL      -0.3383
     25 C11         4.0110   37.2661   -5.4920 C.ar        1 MOL      -0.0091
     26 C9          3.6800   37.1948   -4.1275 C.ar        1 MOL       0.0835
     27 O24         3.6774   35.9768   -3.5295 O.3         1 MOL      -0.3373
     28 H1          5.0736   35.7119   -0.0251 H           1 MOL       0.0474
     29 H2          9.5710   34.5254   -0.7012 H           1 MOL       0.0973
     30 H3          9.6054   35.4815    0.7853 H           1 MOL       0.0973
     31 H4          8.2066   38.8249   -2.0763 H           1 MOL       0.0506
     32 H5          5.8431   39.3338   -2.0847 H           1 MOL       0.0470
     33 H6          1.1115   38.7330    0.3148 H           1 MOL       0.2580
     34 H7          3.1848   40.4806   -3.5863 H           1 MOL       0.0500
     35 H8          4.2377   40.9783   -7.1310 H           1 MOL       0.0381
     36 H9          4.4275   41.7089   -5.5462 H           1 MOL       0.0381
     37 H10         2.4588   42.6317   -6.7762 H           1 MOL       0.0247
     38 H11         1.9346   41.8240   -5.2978 H           1 MOL       0.0247
     39 H12         1.7431   41.0094   -6.8658 H           1 MOL       0.0247
     40 H13         3.6456   38.0348   -7.9275 H           1 MOL       0.2463
     41 H14         4.2373   36.4165   -6.0020 H           1 MOL       0.0450
     42 H15         2.7380   35.6734   -3.5991 H           1 MOL       0.2473
@<TRIPOS>BOND
     1     1     2  ar
     2     1     9  ar
     3     2     3   1
     4     2     6  ar
     5     3     4   1
     6     4     5   1
     7     5     6   1
     8     6     7  ar
     9     7     8  ar
    10     8     9  ar
    11     9    10   1
    12    10    11   2
    13    10    16   1
    14    11    12   1
    15    11    15   1
    16    12    13  ar
    17    12    14  ar
    18    15    17   1
    19    16    17   2
    20    16    18   1
    21    18    19  ar
    22    18    26  ar
    23    19    20  ar
    24    20    21   1
    25    20    23  ar
    26    21    22   1
    27    23    24   1
    28    23    25  ar
    29    25    26  ar
    30    26    27   1
    31     1    28   1
    32     4    29   1
    33     4    30   1
    34     7    31   1
    35     8    32   1
    36    15    33   1
    37    19    34   1
    38    21    35   1
    39    21    36   1
    40    22    37   1
    41    22    38   1
    42    22    39   1
    43    24    40   1
    44    25    41   1
    45    27    42   1
@<TRIPOS>SUBSTRUCTURE
     1  MOL      1

