@<TRIPOS>MOLECULE
1yc1_ligand_024
    42    45
SMALL
GAST_HUCK
****
This file was generated by PARSER (from files_GN.cpp)

@<TRIPOS>ATOM
      1 C15         3.9460   37.4466    1.3065 C.ar        1 MOL      -0.0397
      2 C12         3.2724   38.6548    1.5670 C.ar        1 MOL       0.1203
      3 O17         3.3586   39.4088    2.6733 O.3         1 MOL      -0.2917
      4 C19         2.5139   40.5288    2.3317 C.3         1 MOL       0.1865
      5 O18         1.8060   40.3125    1.0956 O.3         1 MOL      -0.2923
      6 C16         2.3626   39.1697    0.6606 C.ar        1 MOL       0.1209
      7 C22         2.0899   38.4844   -0.5312 C.ar        1 MOL      -0.0435
      8 C20         2.7624   37.2714   -0.8004 C.ar        1 MOL      -0.0793
      9 C8          3.7226   36.7124    0.1002 C.ar        1 MOL      -0.0502
     10 C4          4.4159   35.4670   -0.1732 C.2         1 MOL       0.0106
     11 C1          5.4930   34.8801    0.5175 C.2         1 MOL       0.1253
     12 C7          6.2543   35.3090    1.6082 C.2         1 MOL       0.0928
     13 O21         7.4597   35.8583    1.3673 O.co2       1 MOL      -0.5584
     14 O23         6.0294   34.7599    2.8238 O.co2       1 MOL      -0.5584
     15 N5          5.8205   33.7323   -0.0828 N.pl3       1 MOL      -0.2108
     16 C2          4.1947   34.5321   -1.2069 C.2         1 MOL       0.0398
     17 N3          5.0660   33.5144   -1.0970 N.2         1 MOL      -0.2144
     18 C6          3.2831   34.4976   -2.2732 C.ar        1 MOL       0.0020
     19 C10         2.0193   33.8920   -2.0918 C.ar        1 MOL      -0.0679
     20 C14         1.0582   33.8930   -3.1288 C.ar        1 MOL      -0.0234
     21 C26        -0.2780   33.2634   -2.9223 C.3         1 MOL      -0.0285
     22 C27        -0.3807   31.8835   -3.6143 C.3         1 MOL      -0.0583
     23 C13         1.3918   34.5046   -4.3592 C.ar        1 MOL       0.0829
     24 O25         0.5033   34.5543   -5.3847 O.3         1 MOL      -0.3383
     25 C11         2.6621   35.0762   -4.5541 C.ar        1 MOL      -0.0091
     26 C9          3.6141   35.0755   -3.5211 C.ar        1 MOL       0.0835
     27 O24         4.8121   35.6661   -3.7705 O.3         1 MOL      -0.3373
     28 H1          4.5771   37.1180    2.0289 H           1 MOL       0.0474
     29 H2          3.1336   41.4256    2.2361 H           1 MOL       0.0973
     30 H3          1.7872   40.6904    3.1259 H           1 MOL       0.0973
     31 H4          1.4026   38.8521   -1.1929 H           1 MOL       0.0506
     32 H5          2.5237   36.8294   -1.6776 H           1 MOL       0.0470
     33 H6          6.5362   33.1456    0.2014 H           1 MOL       0.2580
     34 H7          1.8030   33.4421   -1.1979 H           1 MOL       0.0500
     35 H8         -1.0585   33.9261   -3.3134 H           1 MOL       0.0381
     36 H9         -0.4915   33.1269   -1.8574 H           1 MOL       0.0381
     37 H10        -1.3629   31.4499   -3.4283 H           1 MOL       0.0247
     38 H11         0.3784   31.2069   -3.2218 H           1 MOL       0.0247
     39 H12        -0.2468   31.9771   -4.6927 H           1 MOL       0.0247
     40 H13         0.6845   33.7486   -5.9140 H           1 MOL       0.2463
     41 H14         2.8910   35.5033   -5.4574 H           1 MOL       0.0450
     42 H15         5.4821   35.1651   -3.2566 H           1 MOL       0.2473
@<TRIPOS>BOND
     1     1     2  ar
     2     1     9  ar
     3     2     3   1
     4     2     6  ar
     5     3     4   1
     6     4     5   1
     7     5     6   1
     8     6     7  ar
     9     7     8  ar
    10     8     9  ar
    11     9    10   1
    12    10    11   2
    13    10    16   1
    14    11    12   1
    15    11    15   1
    16    12    13  ar
    17    12    14  ar
    18    15    17   1
    19    16    17   2
    20    16    18   1
    21    18    19  ar
    22    18    26  ar
    23    19    20  ar
    24    20    21   1
    25    20    23  ar
    26    21    22   1
    27    23    24   1
    28    23    25  ar
    29    25    26  ar
    30    26    27   1
    31     1    28   1
    32     4    29   1
    33     4    30   1
    34     7    31   1
    35     8    32   1
    36    15    33   1
    37    19    34   1
    38    21    35   1
    39    21    36   1
    40    22    37   1
    41    22    38   1
    42    22    39   1
    43    24    40   1
    44    25    41   1
    45    27    42   1
@<TRIPOS>SUBSTRUCTURE
     1  MOL      1

