@<TRIPOS>MOLECULE
1yc1_ligand_003
    42    45
SMALL
GAST_HUCK
****
This file was generated by PARSER (from files_GN.cpp)

@<TRIPOS>ATOM
      1 C15         1.9076   34.8786   -1.7433 C.ar        1 MOL      -0.0397
      2 C12         1.9529   33.4755   -1.7581 C.ar        1 MOL       0.1203
      3 O17         1.0749   32.6379   -2.3413 O.3         1 MOL      -0.2917
      4 C19         1.5356   31.3581   -1.8694 C.3         1 MOL       0.1865
      5 O18         2.8010   31.4574   -1.1881 O.3         1 MOL      -0.2923
      6 C16         2.9651   32.7912   -1.1037 C.ar        1 MOL       0.1209
      7 C22         4.0005   33.4889   -0.4644 C.ar        1 MOL      -0.0435
      8 C20         3.9915   34.8963   -0.4849 C.ar        1 MOL      -0.0793
      9 C8          2.9279   35.6166   -1.0865 C.ar        1 MOL      -0.0502
     10 C4          2.8823   37.0454   -1.0413 C.2         1 MOL       0.0106
     11 C1          3.1593   37.9053    0.0285 C.2         1 MOL       0.1253
     12 C7          3.5236   37.6526    1.3647 C.2         1 MOL       0.0928
     13 O21         3.8471   38.6825    2.1823 O.co2       1 MOL      -0.5584
     14 O23         3.4515   36.4287    1.9211 O.co2       1 MOL      -0.5584
     15 N5          2.9387   39.1583   -0.4073 N.pl3       1 MOL      -0.2108
     16 C2          2.4894   37.9026   -2.0785 C.2         1 MOL       0.0398
     17 N3          2.5373   39.1669   -1.6315 N.2         1 MOL      -0.2144
     18 C6          2.1115   37.6000   -3.4033 C.ar        1 MOL       0.0020
     19 C10         0.8973   38.1160   -3.9087 C.ar        1 MOL      -0.0679
     20 C14         0.4670   37.8388   -5.2278 C.ar        1 MOL      -0.0234
     21 C26        -0.8274   38.4083   -5.7054 C.3         1 MOL      -0.0285
     22 C27        -0.8714   39.9564   -5.7086 C.3         1 MOL      -0.0583
     23 C13         1.2684   36.9876   -6.0289 C.ar        1 MOL       0.0829
     24 O25         0.9093   36.6545   -7.2917 O.3         1 MOL      -0.3383
     25 C11         2.4813   36.4736   -5.5339 C.ar        1 MOL      -0.0091
     26 C9          2.9154   36.7896   -4.2356 C.ar        1 MOL       0.0835
     27 O24         4.1167   36.3201   -3.8081 O.3         1 MOL      -0.3373
     28 H1          1.1210   35.3407   -2.1994 H           1 MOL       0.0474
     29 H2          1.6385   30.6764   -2.7149 H           1 MOL       0.0973
     30 H3          0.7882   30.9460   -1.1873 H           1 MOL       0.0973
     31 H4          4.7520   32.9782    0.0042 H           1 MOL       0.0506
     32 H5          4.7696   35.3929   -0.0423 H           1 MOL       0.0470
     33 H6          3.0452   39.9577    0.1329 H           1 MOL       0.2580
     34 H7          0.3028   38.6893   -3.3010 H           1 MOL       0.0500
     35 H8         -1.6258   38.0354   -5.0603 H           1 MOL       0.0381
     36 H9         -1.0553   38.0714   -6.7177 H           1 MOL       0.0381
     37 H10        -1.8180   40.2941   -6.1332 H           1 MOL       0.0247
     38 H11        -0.0561   40.3638   -6.3077 H           1 MOL       0.0247
     39 H12        -0.7922   40.3511   -4.6945 H           1 MOL       0.0247
     40 H13         0.9096   35.6738   -7.3119 H           1 MOL       0.2463
     41 H14         3.0597   35.8768   -6.1266 H           1 MOL       0.0450
     42 H15         4.7496   36.5277   -4.5335 H           1 MOL       0.2473
@<TRIPOS>BOND
     1     1     2  ar
     2     1     9  ar
     3     2     3   1
     4     2     6  ar
     5     3     4   1
     6     4     5   1
     7     5     6   1
     8     6     7  ar
     9     7     8  ar
    10     8     9  ar
    11     9    10   1
    12    10    11   2
    13    10    16   1
    14    11    12   1
    15    11    15   1
    16    12    13  ar
    17    12    14  ar
    18    15    17   1
    19    16    17   2
    20    16    18   1
    21    18    19  ar
    22    18    26  ar
    23    19    20  ar
    24    20    21   1
    25    20    23  ar
    26    21    22   1
    27    23    24   1
    28    23    25  ar
    29    25    26  ar
    30    26    27   1
    31     1    28   1
    32     4    29   1
    33     4    30   1
    34     7    31   1
    35     8    32   1
    36    15    33   1
    37    19    34   1
    38    21    35   1
    39    21    36   1
    40    22    37   1
    41    22    38   1
    42    22    39   1
    43    24    40   1
    44    25    41   1
    45    27    42   1
@<TRIPOS>SUBSTRUCTURE
     1  MOL      1

