@<TRIPOS>MOLECULE
1yc1_ligand_041
    42    45
SMALL
GAST_HUCK
****
This file was generated by PARSER (from files_GN.cpp)

@<TRIPOS>ATOM
      1 C15         2.1339   36.0516   -4.1024 C.ar        1 MOL      -0.0397
      2 C12         3.0456   35.3225   -3.3225 C.ar        1 MOL       0.1203
      3 O17         3.9012   34.3721   -3.7377 O.3         1 MOL      -0.2917
      4 C19         4.3699   33.8472   -2.4805 C.3         1 MOL       0.1865
      5 O18         4.0720   34.7437   -1.3932 O.3         1 MOL      -0.2923
      6 C16         3.1470   35.5431   -1.9578 C.ar        1 MOL       0.1209
      7 C22         2.3418   36.5028   -1.3230 C.ar        1 MOL      -0.0435
      8 C20         1.4099   37.2300   -2.0895 C.ar        1 MOL      -0.0793
      9 C8          1.2992   37.0206   -3.4887 C.ar        1 MOL      -0.0502
     10 C4          0.3393   37.7379   -4.2547 C.2         1 MOL       0.0106
     11 C1          0.0837   39.1122   -4.2622 C.2         1 MOL       0.1253
     12 C7          0.7286   40.1596   -3.5819 C.2         1 MOL       0.0928
     13 O21         1.9730   40.0168   -3.0796 O.co2       1 MOL      -0.5584
     14 O23         0.1862   41.4020   -3.5771 O.co2       1 MOL      -0.5584
     15 N5         -0.9108   39.3193   -5.1393 N.pl3       1 MOL      -0.2108
     16 C2         -0.5686   37.1989   -5.1760 C.2         1 MOL       0.0398
     17 N3         -1.2949   38.2123   -5.6848 N.2         1 MOL      -0.2144
     18 C6         -0.7804   35.8515   -5.5345 C.ar        1 MOL       0.0020
     19 C10        -0.9038   34.8426   -4.5517 C.ar        1 MOL      -0.0679
     20 C14        -1.1017   33.4839   -4.8965 C.ar        1 MOL      -0.0234
     21 C26        -1.2525   32.4605   -3.8249 C.3         1 MOL      -0.0285
     22 C27        -2.7333   32.1814   -3.4811 C.3         1 MOL      -0.0583
     23 C13        -1.1763   33.1432   -6.2720 C.ar        1 MOL       0.0829
     24 O25        -1.3636   31.8758   -6.7130 O.3         1 MOL      -0.3383
     25 C11        -1.0561   34.1382   -7.2551 C.ar        1 MOL      -0.0091
     26 C9         -0.8518   35.4820   -6.8991 C.ar        1 MOL       0.0835
     27 O24        -0.6716   36.4029   -7.8849 O.3         1 MOL      -0.3373
     28 H1          2.0862   35.8686   -5.1074 H           1 MOL       0.0474
     29 H2          5.4478   33.6843   -2.5303 H           1 MOL       0.0973
     30 H3          3.8865   32.8837   -2.2922 H           1 MOL       0.0973
     31 H4          2.4257   36.6622   -0.3176 H           1 MOL       0.0506
     32 H5          0.8065   37.9030   -1.6131 H           1 MOL       0.0470
     33 H6         -1.2764   40.1869   -5.3624 H           1 MOL       0.2580
     34 H7         -0.8581   35.1012   -3.5595 H           1 MOL       0.0500
     35 H8         -0.7455   32.7902   -2.9115 H           1 MOL       0.0381
     36 H9         -0.7731   31.5248   -4.1212 H           1 MOL       0.0381
     37 H10        -2.7889   31.4144   -2.7065 H           1 MOL       0.0247
     38 H11        -3.2747   31.8264   -4.3599 H           1 MOL       0.0247
     39 H12        -3.2159   33.0887   -3.1101 H           1 MOL       0.0247
     40 H13        -0.7867   31.3063   -6.1437 H           1 MOL       0.2463
     41 H14        -1.1032   33.8877   -8.2408 H           1 MOL       0.0450
     42 H15        -0.1185   35.9474   -8.5689 H           1 MOL       0.2473
@<TRIPOS>BOND
     1     1     2  ar
     2     1     9  ar
     3     2     3   1
     4     2     6  ar
     5     3     4   1
     6     4     5   1
     7     5     6   1
     8     6     7  ar
     9     7     8  ar
    10     8     9  ar
    11     9    10   1
    12    10    11   2
    13    10    16   1
    14    11    12   1
    15    11    15   1
    16    12    13  ar
    17    12    14  ar
    18    15    17   1
    19    16    17   2
    20    16    18   1
    21    18    19  ar
    22    18    26  ar
    23    19    20  ar
    24    20    21   1
    25    20    23  ar
    26    21    22   1
    27    23    24   1
    28    23    25  ar
    29    25    26  ar
    30    26    27   1
    31     1    28   1
    32     4    29   1
    33     4    30   1
    34     7    31   1
    35     8    32   1
    36    15    33   1
    37    19    34   1
    38    21    35   1
    39    21    36   1
    40    22    37   1
    41    22    38   1
    42    22    39   1
    43    24    40   1
    44    25    41   1
    45    27    42   1
@<TRIPOS>SUBSTRUCTURE
     1  MOL      1

