@<TRIPOS>MOLECULE
1yc1_ligand_008
    42    45
SMALL
GAST_HUCK
****
This file was generated by PARSER (from files_GN.cpp)

@<TRIPOS>ATOM
      1 C15         1.4456   37.7730   -4.5608 C.ar        1 MOL      -0.0397
      2 C12         1.2269   38.0959   -3.2103 C.ar        1 MOL       0.1203
      3 O17         0.1262   38.6595   -2.6834 O.3         1 MOL      -0.2917
      4 C19         0.5891   38.9669   -1.3485 C.3         1 MOL       0.1865
      5 O18         1.7809   38.2290   -1.0226 O.3         1 MOL      -0.2923
      6 C16         2.1944   37.8457   -2.2462 C.ar        1 MOL       0.1209
      7 C22         3.4253   37.2633   -2.5977 C.ar        1 MOL      -0.0435
      8 C20         3.6731   36.9503   -3.9509 C.ar        1 MOL      -0.0793
      9 C8          2.6862   37.2006   -4.9369 C.ar        1 MOL      -0.0502
     10 C4          2.9165   36.8643   -6.2822 C.2         1 MOL       0.0106
     11 C1          3.6175   37.6417   -7.2078 C.2         1 MOL       0.1253
     12 C7          4.2407   38.8796   -7.0049 C.2         1 MOL       0.0928
     13 O21         4.0009   39.9116   -7.8446 O.co2       1 MOL      -0.5584
     14 O23         5.2719   38.9962   -6.1293 O.co2       1 MOL      -0.5584
     15 N5          3.4738   37.0438   -8.4021 N.pl3       1 MOL      -0.2108
     16 C2          2.3101   35.8508   -7.0276 C.2         1 MOL       0.0398
     17 N3          2.7036   36.0048   -8.3021 N.2         1 MOL      -0.2144
     18 C6          1.3456   34.8962   -6.6068 C.ar        1 MOL       0.0020
     19 C10         1.4370   34.2826   -5.3353 C.ar        1 MOL      -0.0679
     20 C14         0.4318   33.4130   -4.8511 C.ar        1 MOL      -0.0234
     21 C26         0.5634   32.8309   -3.4824 C.3         1 MOL      -0.0285
     22 C27         0.0318   33.7908   -2.3982 C.3         1 MOL      -0.0583
     23 C13        -0.6952   33.1585   -5.6717 C.ar        1 MOL       0.0829
     24 O25        -1.7279   32.3989   -5.2151 O.3         1 MOL      -0.3383
     25 C11        -0.7822   33.7296   -6.9530 C.ar        1 MOL      -0.0091
     26 C9          0.2298   34.5801   -7.4210 C.ar        1 MOL       0.0835
     27 O24         0.0670   35.1515   -8.6384 O.3         1 MOL      -0.3373
     28 H1          0.7151   37.9704   -5.2464 H           1 MOL       0.0474
     29 H2         -0.2016   38.7321   -0.6353 H           1 MOL       0.0973
     30 H3          0.8010   40.0391   -1.2883 H           1 MOL       0.0973
     31 H4          4.1335   37.0803   -1.8845 H           1 MOL       0.0506
     32 H5          4.5654   36.5313   -4.2131 H           1 MOL       0.0470
     33 H6          3.8455   37.3706   -9.2365 H           1 MOL       0.2580
     34 H7          2.2480   34.4696   -4.7340 H           1 MOL       0.0500
     35 H8          1.6130   32.6038   -3.2746 H           1 MOL       0.0381
     36 H9          0.0195   31.8829   -3.4042 H           1 MOL       0.0381
     37 H10         0.1144   33.3239   -1.4124 H           1 MOL       0.0247
     38 H11        -1.0214   34.0345   -2.5788 H           1 MOL       0.0247
     39 H12         0.6112   34.7247   -2.3804 H           1 MOL       0.0247
     40 H13        -1.7804   31.6241   -5.8143 H           1 MOL       0.2463
     41 H14        -1.6073   33.5473   -7.5309 H           1 MOL       0.0450
     42 H15        -0.1162   34.4105   -9.2503 H           1 MOL       0.2473
@<TRIPOS>BOND
     1     1     2  ar
     2     1     9  ar
     3     2     3   1
     4     2     6  ar
     5     3     4   1
     6     4     5   1
     7     5     6   1
     8     6     7  ar
     9     7     8  ar
    10     8     9  ar
    11     9    10   1
    12    10    11   2
    13    10    16   1
    14    11    12   1
    15    11    15   1
    16    12    13  ar
    17    12    14  ar
    18    15    17   1
    19    16    17   2
    20    16    18   1
    21    18    19  ar
    22    18    26  ar
    23    19    20  ar
    24    20    21   1
    25    20    23  ar
    26    21    22   1
    27    23    24   1
    28    23    25  ar
    29    25    26  ar
    30    26    27   1
    31     1    28   1
    32     4    29   1
    33     4    30   1
    34     7    31   1
    35     8    32   1
    36    15    33   1
    37    19    34   1
    38    21    35   1
    39    21    36   1
    40    22    37   1
    41    22    38   1
    42    22    39   1
    43    24    40   1
    44    25    41   1
    45    27    42   1
@<TRIPOS>SUBSTRUCTURE
     1  MOL      1

