@<TRIPOS>MOLECULE
1yc1_ligand_014
    42    45
SMALL
GAST_HUCK
****
This file was generated by PARSER (from files_GN.cpp)

@<TRIPOS>ATOM
      1 C15         4.2464   41.6167   -1.4155 C.ar        1 MOL      -0.0397
      2 C12         4.5279   42.9571   -1.1080 C.ar        1 MOL       0.1203
      3 O17         3.6786   44.0003   -1.2023 O.3         1 MOL      -0.2917
      4 C19         4.4782   45.0823   -0.7075 C.3         1 MOL       0.1865
      5 O18         5.8008   44.6599   -0.3208 O.3         1 MOL      -0.2923
      6 C16         5.7559   43.3501   -0.6042 C.ar        1 MOL       0.1209
      7 C22         6.7753   42.4021   -0.4237 C.ar        1 MOL      -0.0435
      8 C20         6.5211   41.0467   -0.7037 C.ar        1 MOL      -0.0793
      9 C8          5.2413   40.6411   -1.1605 C.ar        1 MOL      -0.0502
     10 C4          4.9915   39.2480   -1.3605 C.2         1 MOL       0.0106
     11 C1          5.7495   38.4177   -2.1878 C.2         1 MOL       0.1253
     12 C7          6.7150   38.7544   -3.1344 C.2         1 MOL       0.0928
     13 O21         7.9429   38.1562   -3.1296 O.co2       1 MOL      -0.5584
     14 O23         6.4082   39.5672   -4.1840 O.co2       1 MOL      -0.5584
     15 N5          5.4007   37.1630   -1.8694 N.pl3       1 MOL      -0.2108
     16 C2          4.2043   38.3920   -0.5701 C.2         1 MOL       0.0398
     17 N3          4.5165   37.1342   -0.9358 N.2         1 MOL      -0.2144
     18 C6          3.2880   38.6553    0.4853 C.ar        1 MOL       0.0020
     19 C10         2.3044   39.6650    0.3476 C.ar        1 MOL      -0.0679
     20 C14         1.3522   39.9398    1.3666 C.ar        1 MOL      -0.0234
     21 C26         0.3798   41.0664    1.1916 C.3         1 MOL      -0.0285
     22 C27         0.2824   42.0378    2.4002 C.3         1 MOL      -0.0583
     23 C13         1.3200   39.0947    2.5020 C.ar        1 MOL       0.0829
     24 O25         0.3627   39.2590    3.4623 O.3         1 MOL      -0.3383
     25 C11         2.2500   38.0438    2.6277 C.ar        1 MOL      -0.0091
     26 C9          3.2457   37.8400    1.6492 C.ar        1 MOL       0.0835
     27 O24         4.1322   36.8254    1.8840 O.3         1 MOL      -0.3373
     28 H1          3.3463   41.3590   -1.8125 H           1 MOL       0.0474
     29 H2          3.9819   45.5541    0.1503 H           1 MOL       0.0973
     30 H3          4.5596   45.8401   -1.4932 H           1 MOL       0.0973
     31 H4          7.7018   42.7019   -0.0485 H           1 MOL       0.0506
     32 H5          7.2662   40.3660   -0.5455 H           1 MOL       0.0470
     33 H6          5.7830   36.3672   -2.2926 H           1 MOL       0.2580
     34 H7          2.2668   40.1991   -0.5337 H           1 MOL       0.0500
     35 H8         -0.6091   40.6521    1.0032 H           1 MOL       0.0381
     36 H9          0.6448   41.6718    0.3196 H           1 MOL       0.0381
     37 H10        -0.2356   42.9517    2.0837 H           1 MOL       0.0247
     38 H11         1.2700   42.3127    2.7633 H           1 MOL       0.0247
     39 H12        -0.2919   41.5986    3.2192 H           1 MOL       0.0247
     40 H13         0.8040   39.1163    4.3297 H           1 MOL       0.2463
     41 H14         2.2033   37.4268    3.4488 H           1 MOL       0.0450
     42 H15         5.0137   37.2105    1.7034 H           1 MOL       0.2473
@<TRIPOS>BOND
     1     1     2  ar
     2     1     9  ar
     3     2     3   1
     4     2     6  ar
     5     3     4   1
     6     4     5   1
     7     5     6   1
     8     6     7  ar
     9     7     8  ar
    10     8     9  ar
    11     9    10   1
    12    10    11   2
    13    10    16   1
    14    11    12   1
    15    11    15   1
    16    12    13  ar
    17    12    14  ar
    18    15    17   1
    19    16    17   2
    20    16    18   1
    21    18    19  ar
    22    18    26  ar
    23    19    20  ar
    24    20    21   1
    25    20    23  ar
    26    21    22   1
    27    23    24   1
    28    23    25  ar
    29    25    26  ar
    30    26    27   1
    31     1    28   1
    32     4    29   1
    33     4    30   1
    34     7    31   1
    35     8    32   1
    36    15    33   1
    37    19    34   1
    38    21    35   1
    39    21    36   1
    40    22    37   1
    41    22    38   1
    42    22    39   1
    43    24    40   1
    44    25    41   1
    45    27    42   1
@<TRIPOS>SUBSTRUCTURE
     1  MOL      1

