@<TRIPOS>MOLECULE
1yc1_ligand_023
    42    45
SMALL
GAST_HUCK
****
This file was generated by PARSER (from files_GN.cpp)

@<TRIPOS>ATOM
      1 C15         1.8819   33.7357   -3.3379 C.ar        1 MOL      -0.0397
      2 C12         1.4456   32.5141   -2.7986 C.ar        1 MOL       0.1203
      3 O17         2.1602   31.3826   -2.6731 O.3         1 MOL      -0.2917
      4 C19         1.1895   30.4814   -2.1104 C.3         1 MOL       0.1865
      5 O18        -0.0729   31.1261   -1.8546 O.3         1 MOL      -0.2923
      6 C16         0.1508   32.3667   -2.3222 C.ar        1 MOL       0.1209
      7 C22        -0.7589   33.4365   -2.3650 C.ar        1 MOL      -0.0435
      8 C20        -0.3366   34.6732   -2.8966 C.ar        1 MOL      -0.0793
      9 C8          0.9828   34.8290   -3.3880 C.ar        1 MOL      -0.0502
     10 C4          1.4124   36.0675   -3.9120 C.2         1 MOL       0.0106
     11 C1          1.0896   36.6517   -5.1368 C.2         1 MOL       0.1253
     12 C7          0.2565   36.1808   -6.1639 C.2         1 MOL       0.0928
     13 O21         0.2817   36.7673   -7.3821 O.co2       1 MOL      -0.5584
     14 O23        -0.5668   35.1254   -5.9867 O.co2       1 MOL      -0.5584
     15 N5          1.7736   37.8063   -5.2091 N.pl3       1 MOL      -0.2108
     16 C2          2.3176   36.9512   -3.3221 C.2         1 MOL       0.0398
     17 N3          2.4954   37.9957   -4.1483 N.2         1 MOL      -0.2144
     18 C6          2.9294   36.8359   -2.0574 C.ar        1 MOL       0.0020
     19 C10         4.1046   36.0616   -1.9281 C.ar        1 MOL      -0.0679
     20 C14         4.7538   35.8979   -0.6776 C.ar        1 MOL      -0.0234
     21 C26         6.0167   35.1079   -0.5726 C.3         1 MOL      -0.0285
     22 C27         5.9328   33.8426    0.3151 C.3         1 MOL      -0.0583
     23 C13         4.1920   36.5481    0.4494 C.ar        1 MOL       0.0829
     24 O25         4.7726   36.4805    1.6713 O.3         1 MOL      -0.3383
     25 C11         3.0246   37.3282    0.3325 C.ar        1 MOL      -0.0091
     26 C9          2.3776   37.4616   -0.9147 C.ar        1 MOL       0.0835
     27 O24         1.2265   38.1830   -1.0175 O.3         1 MOL      -0.3373
     28 H1          2.8348   33.8123   -3.6993 H           1 MOL       0.0474
     29 H2          1.5804   30.0775   -1.1743 H           1 MOL       0.0973
     30 H3          1.0287   29.6535   -2.8048 H           1 MOL       0.0973
     31 H4         -1.7124   33.3153   -2.0175 H           1 MOL       0.0506
     32 H5         -0.9980   35.4495   -2.9212 H           1 MOL       0.0470
     33 H6          1.7184   38.4337   -5.9422 H           1 MOL       0.2580
     34 H7          4.5019   35.6188   -2.7625 H           1 MOL       0.0500
     35 H8          6.8071   35.7539   -0.1962 H           1 MOL       0.0381
     36 H9          6.3273   34.7748   -1.5689 H           1 MOL       0.0381
     37 H10         6.8286   33.2302    0.1826 H           1 MOL       0.0247
     38 H11         5.0657   33.2389    0.0456 H           1 MOL       0.0247
     39 H12         5.8631   34.1174    1.3777 H           1 MOL       0.0247
     40 H13         5.5698   37.0420    1.5718 H           1 MOL       0.2463
     41 H14         2.6407   37.7949    1.1586 H           1 MOL       0.0450
     42 H15         0.8633   38.2550   -0.1032 H           1 MOL       0.2473
@<TRIPOS>BOND
     1     1     2  ar
     2     1     9  ar
     3     2     3   1
     4     2     6  ar
     5     3     4   1
     6     4     5   1
     7     5     6   1
     8     6     7  ar
     9     7     8  ar
    10     8     9  ar
    11     9    10   1
    12    10    11   2
    13    10    16   1
    14    11    12   1
    15    11    15   1
    16    12    13  ar
    17    12    14  ar
    18    15    17   1
    19    16    17   2
    20    16    18   1
    21    18    19  ar
    22    18    26  ar
    23    19    20  ar
    24    20    21   1
    25    20    23  ar
    26    21    22   1
    27    23    24   1
    28    23    25  ar
    29    25    26  ar
    30    26    27   1
    31     1    28   1
    32     4    29   1
    33     4    30   1
    34     7    31   1
    35     8    32   1
    36    15    33   1
    37    19    34   1
    38    21    35   1
    39    21    36   1
    40    22    37   1
    41    22    38   1
    42    22    39   1
    43    24    40   1
    44    25    41   1
    45    27    42   1
@<TRIPOS>SUBSTRUCTURE
     1  MOL      1

