@<TRIPOS>MOLECULE
1yc1_ligand_029
    42    45
SMALL
GAST_HUCK
****
This file was generated by PARSER (from files_GN.cpp)

@<TRIPOS>ATOM
      1 C15         2.6860   35.6840   -1.3863 C.ar        1 MOL      -0.0397
      2 C12         3.6948   35.7290   -0.4111 C.ar        1 MOL       0.1203
      3 O17         4.2572   36.8251    0.1280 O.3         1 MOL      -0.2917
      4 C19         5.3056   36.2467    0.9304 C.3         1 MOL       0.1865
      5 O18         5.1691   34.8176    1.0429 O.3         1 MOL      -0.2923
      6 C16         4.2412   34.5650    0.1063 C.ar        1 MOL       0.1209
      7 C22         3.7941   33.3043   -0.3260 C.ar        1 MOL      -0.0435
      8 C20         2.8250   33.2386   -1.3416 C.ar        1 MOL      -0.0793
      9 C8          2.2697   34.4281   -1.8893 C.ar        1 MOL      -0.0502
     10 C4          1.4256   34.3532   -3.0213 C.2         1 MOL       0.0106
     11 C1          0.1873   33.7016   -3.0671 C.2         1 MOL       0.1253
     12 C7         -0.5177   32.9916   -2.0754 C.2         1 MOL       0.0928
     13 O21        -0.0666   32.8540   -0.8094 O.co2       1 MOL      -0.5584
     14 O23        -1.6740   32.3768   -2.3981 O.co2       1 MOL      -0.5584
     15 N5         -0.2986   33.9052   -4.2966 N.pl3       1 MOL      -0.2108
     16 C2          1.6258   34.9194   -4.2971 C.2         1 MOL       0.0398
     17 N3          0.5252   34.6043   -5.0065 N.2         1 MOL      -0.2144
     18 C6          2.7179   35.6956   -4.8473 C.ar        1 MOL       0.0020
     19 C10         3.9857   35.7719   -4.2080 C.ar        1 MOL      -0.0679
     20 C14         5.0290   36.6239   -4.6383 C.ar        1 MOL      -0.0234
     21 C26         6.2824   36.7461   -3.8284 C.3         1 MOL      -0.0285
     22 C27         6.7924   38.2031   -3.6649 C.3         1 MOL      -0.0583
     23 C13         4.8505   37.2933   -5.8682 C.ar        1 MOL       0.0829
     24 O25         5.8451   37.9791   -6.4656 O.3         1 MOL      -0.3383
     25 C11         3.6351   37.2097   -6.5549 C.ar        1 MOL      -0.0091
     26 C9          2.5743   36.4332   -6.0581 C.ar        1 MOL       0.0835
     27 O24         1.4534   36.4609   -6.8253 O.3         1 MOL      -0.3373
     28 H1          2.3384   36.5533   -1.7887 H           1 MOL       0.0474
     29 H2          5.2830   36.6906    1.9279 H           1 MOL       0.0973
     30 H3          6.2728   36.4744    0.4726 H           1 MOL       0.0973
     31 H4          4.1779   32.4531    0.0791 H           1 MOL       0.0506
     32 H5          2.5382   32.3171   -1.6970 H           1 MOL       0.0470
     33 H6         -1.1597   33.5857   -4.6148 H           1 MOL       0.2580
     34 H7          4.1922   35.1627   -3.4234 H           1 MOL       0.0500
     35 H8          7.0657   36.1462   -4.2962 H           1 MOL       0.0381
     36 H9          6.1382   36.3486   -2.8140 H           1 MOL       0.0381
     37 H10         7.6478   38.2252   -2.9851 H           1 MOL       0.0247
     38 H11         6.0000   38.8429   -3.2662 H           1 MOL       0.0247
     39 H12         7.1321   38.6184   -4.6138 H           1 MOL       0.0247
     40 H13         6.6041   37.3664   -6.4577 H           1 MOL       0.2463
     41 H14         3.5352   37.7167   -7.4373 H           1 MOL       0.0450
     42 H15         1.0847   35.5553   -6.7947 H           1 MOL       0.2473
@<TRIPOS>BOND
     1     1     2  ar
     2     1     9  ar
     3     2     3   1
     4     2     6  ar
     5     3     4   1
     6     4     5   1
     7     5     6   1
     8     6     7  ar
     9     7     8  ar
    10     8     9  ar
    11     9    10   1
    12    10    11   2
    13    10    16   1
    14    11    12   1
    15    11    15   1
    16    12    13  ar
    17    12    14  ar
    18    15    17   1
    19    16    17   2
    20    16    18   1
    21    18    19  ar
    22    18    26  ar
    23    19    20  ar
    24    20    21   1
    25    20    23  ar
    26    21    22   1
    27    23    24   1
    28    23    25  ar
    29    25    26  ar
    30    26    27   1
    31     1    28   1
    32     4    29   1
    33     4    30   1
    34     7    31   1
    35     8    32   1
    36    15    33   1
    37    19    34   1
    38    21    35   1
    39    21    36   1
    40    22    37   1
    41    22    38   1
    42    22    39   1
    43    24    40   1
    44    25    41   1
    45    27    42   1
@<TRIPOS>SUBSTRUCTURE
     1  MOL      1

