@<TRIPOS>MOLECULE
1yc1_ligand_013
    42    45
SMALL
GAST_HUCK
****
This file was generated by PARSER (from files_GN.cpp)

@<TRIPOS>ATOM
      1 C15        -0.0220   34.5856   -3.8930 C.ar        1 MOL      -0.0397
      2 C12        -0.9121   33.7073   -3.2566 C.ar        1 MOL       0.1203
      3 O17        -2.2291   33.5687   -3.4987 O.3         1 MOL      -0.2917
      4 C19        -2.5934   32.5464   -2.5505 C.3         1 MOL       0.1865
      5 O18        -1.4684   32.0819   -1.7785 O.3         1 MOL      -0.2923
      6 C16        -0.4707   32.8377   -2.2719 C.ar        1 MOL       0.1209
      7 C22         0.8789   32.8195   -1.8857 C.ar        1 MOL      -0.0435
      8 C20         1.7851   33.6766   -2.5400 C.ar        1 MOL      -0.0793
      9 C8          1.3558   34.5777   -3.5518 C.ar        1 MOL      -0.0502
     10 C4          2.2782   35.4432   -4.2083 C.2         1 MOL       0.0106
     11 C1          2.3269   35.7950   -5.5620 C.2         1 MOL       0.1253
     12 C7          1.5490   35.3452   -6.6402 C.2         1 MOL       0.0928
     13 O21         1.0371   34.0970   -6.6649 O.co2       1 MOL      -0.5584
     14 O23         1.3015   36.1671   -7.6857 O.co2       1 MOL      -0.5584
     15 N5          3.3397   36.6637   -5.7090 N.pl3       1 MOL      -0.2108
     16 C2          3.3171   36.1775   -3.6243 C.2         1 MOL       0.0398
     17 N3          3.9319   36.8869   -4.5820 N.2         1 MOL      -0.2144
     18 C6          3.6921   36.2425   -2.2689 C.ar        1 MOL       0.0020
     19 C10         4.8338   35.5398   -1.8273 C.ar        1 MOL      -0.0679
     20 C14         5.1896   35.5171   -0.4578 C.ar        1 MOL      -0.0234
     21 C26         6.3568   34.7017   -0.0215 C.3         1 MOL      -0.0285
     22 C27         7.6896   35.4631   -0.1770 C.3         1 MOL      -0.0583
     23 C13         4.4119   36.2663    0.4588 C.ar        1 MOL       0.0829
     24 O25         4.7422   36.3251    1.7723 O.3         1 MOL      -0.3383
     25 C11         3.2943   36.9948    0.0158 C.ar        1 MOL      -0.0091
     26 C9          2.9173   36.9686   -1.3375 C.ar        1 MOL       0.0835
     27 O24         1.8225   37.6765   -1.7135 O.3         1 MOL      -0.3373
     28 H1         -0.3915   35.2292   -4.5947 H           1 MOL       0.0474
     29 H2         -3.0272   31.6998   -3.0865 H           1 MOL       0.0973
     30 H3         -3.3497   32.9474   -1.8717 H           1 MOL       0.0973
     31 H4          1.1981   32.1802   -1.1532 H           1 MOL       0.0506
     32 H5          2.7712   33.6165   -2.2810 H           1 MOL       0.0470
     33 H6          3.6178   37.0486   -6.5536 H           1 MOL       0.2580
     34 H7          5.3861   35.0091   -2.5096 H           1 MOL       0.0500
     35 H8          6.4033   33.7732   -0.6025 H           1 MOL       0.0381
     36 H9          6.2467   34.4019    1.0262 H           1 MOL       0.0381
     37 H10         8.5163   34.8335    0.1650 H           1 MOL       0.0247
     38 H11         7.6804   36.3782    0.4238 H           1 MOL       0.0247
     39 H12         7.8644   35.7277   -1.2251 H           1 MOL       0.0247
     40 H13         5.4687   36.9839    1.8035 H           1 MOL       0.2463
     41 H14         2.7481   37.5320    0.6904 H           1 MOL       0.0450
     42 H15         2.1579   38.5767   -1.9081 H           1 MOL       0.2473
@<TRIPOS>BOND
     1     1     2  ar
     2     1     9  ar
     3     2     3   1
     4     2     6  ar
     5     3     4   1
     6     4     5   1
     7     5     6   1
     8     6     7  ar
     9     7     8  ar
    10     8     9  ar
    11     9    10   1
    12    10    11   2
    13    10    16   1
    14    11    12   1
    15    11    15   1
    16    12    13  ar
    17    12    14  ar
    18    15    17   1
    19    16    17   2
    20    16    18   1
    21    18    19  ar
    22    18    26  ar
    23    19    20  ar
    24    20    21   1
    25    20    23  ar
    26    21    22   1
    27    23    24   1
    28    23    25  ar
    29    25    26  ar
    30    26    27   1
    31     1    28   1
    32     4    29   1
    33     4    30   1
    34     7    31   1
    35     8    32   1
    36    15    33   1
    37    19    34   1
    38    21    35   1
    39    21    36   1
    40    22    37   1
    41    22    38   1
    42    22    39   1
    43    24    40   1
    44    25    41   1
    45    27    42   1
@<TRIPOS>SUBSTRUCTURE
     1  MOL      1

