@<TRIPOS>MOLECULE
1yc1_ligand_002
    42    45
SMALL
GAST_HUCK
****
This file was generated by PARSER (from files_GN.cpp)

@<TRIPOS>ATOM
      1 C15         2.8858   33.9101   -3.7115 C.ar        1 MOL      -0.0397
      2 C12         2.9651   33.2679   -2.4652 C.ar        1 MOL       0.1203
      3 O17         2.7897   31.9565   -2.1959 O.3         1 MOL      -0.2917
      4 C19         2.6362   31.9878   -0.7636 C.3         1 MOL       0.1865
      5 O18         3.1953   33.1975   -0.2157 O.3         1 MOL      -0.2923
      6 C16         3.2020   33.9906   -1.3045 C.ar        1 MOL       0.1209
      7 C22         3.3802   35.3840   -1.3515 C.ar        1 MOL      -0.0435
      8 C20         3.2833   36.0441   -2.5961 C.ar        1 MOL      -0.0793
      9 C8          3.0273   35.3156   -3.7876 C.ar        1 MOL      -0.0502
     10 C4          2.8237   35.9986   -5.0106 C.2         1 MOL       0.0106
     11 C1          3.7037   36.9099   -5.6066 C.2         1 MOL       0.1253
     12 C7          5.0038   37.3134   -5.2458 C.2         1 MOL       0.0928
     13 O21         5.7421   38.0337   -6.1183 O.co2       1 MOL      -0.5584
     14 O23         5.6264   36.8252   -4.1433 O.co2       1 MOL      -0.5584
     15 N5          3.1130   37.3384   -6.7297 N.pl3       1 MOL      -0.2108
     16 C2          1.7360   35.9034   -5.8947 C.2         1 MOL       0.0398
     17 N3          1.9770   36.7580   -6.9065 N.2         1 MOL      -0.2144
     18 C6          0.5682   35.0919   -5.8503 C.ar        1 MOL       0.0020
     19 C10         0.0040   34.6793   -4.6164 C.ar        1 MOL      -0.0679
     20 C14        -1.0659   33.7504   -4.5513 C.ar        1 MOL      -0.0234
     21 C26        -1.4896   33.1979   -3.2278 C.3         1 MOL      -0.0285
     22 C27        -3.0189   33.1792   -2.9974 C.3         1 MOL      -0.0583
     23 C13        -1.6477   33.3078   -5.7559 C.ar        1 MOL       0.0829
     24 O25        -2.7044   32.4610   -5.7657 O.3         1 MOL      -0.3383
     25 C11        -1.1696   33.7740   -6.9837 C.ar        1 MOL      -0.0091
     26 C9         -0.0556   34.6367   -7.0453 C.ar        1 MOL       0.0835
     27 O24         0.4242   34.9844   -8.2749 O.3         1 MOL      -0.3373
     28 H1          2.6885   33.3558   -4.5461 H           1 MOL       0.0474
     29 H2          3.1285   31.1233   -0.3169 H           1 MOL       0.0973
     30 H3          1.5706   31.9334   -0.5178 H           1 MOL       0.0973
     31 H4          3.5429   35.9172   -0.4926 H           1 MOL       0.0506
     32 H5          3.3778   37.0633   -2.6190 H           1 MOL       0.0470
     33 H6          3.4927   37.9865   -7.3454 H           1 MOL       0.2580
     34 H7          0.3984   35.0428   -3.7446 H           1 MOL       0.0500
     35 H8         -1.0382   33.7676   -2.3999 H           1 MOL       0.0381
     36 H9         -1.1182   32.1669   -3.1482 H           1 MOL       0.0381
     37 H10        -3.2152   32.9416   -1.9441 H           1 MOL       0.0247
     38 H11        -3.4971   32.4273   -3.6291 H           1 MOL       0.0247
     39 H12        -3.4462   34.1565   -3.2261 H           1 MOL       0.0247
     40 H13        -2.3278   31.5870   -6.0352 H           1 MOL       0.2463
     41 H14        -1.6167   33.4585   -7.8464 H           1 MOL       0.0450
     42 H15         0.2105   34.2323   -8.8770 H           1 MOL       0.2473
@<TRIPOS>BOND
     1     1     2  ar
     2     1     9  ar
     3     2     3   1
     4     2     6  ar
     5     3     4   1
     6     4     5   1
     7     5     6   1
     8     6     7  ar
     9     7     8  ar
    10     8     9  ar
    11     9    10   1
    12    10    11   2
    13    10    16   1
    14    11    12   1
    15    11    15   1
    16    12    13  ar
    17    12    14  ar
    18    15    17   1
    19    16    17   2
    20    16    18   1
    21    18    19  ar
    22    18    26  ar
    23    19    20  ar
    24    20    21   1
    25    20    23  ar
    26    21    22   1
    27    23    24   1
    28    23    25  ar
    29    25    26  ar
    30    26    27   1
    31     1    28   1
    32     4    29   1
    33     4    30   1
    34     7    31   1
    35     8    32   1
    36    15    33   1
    37    19    34   1
    38    21    35   1
    39    21    36   1
    40    22    37   1
    41    22    38   1
    42    22    39   1
    43    24    40   1
    44    25    41   1
    45    27    42   1
@<TRIPOS>SUBSTRUCTURE
     1  MOL      1

