@<TRIPOS>MOLECULE
1yc1_ligand_028
    42    45
SMALL
GAST_HUCK
****
This file was generated by PARSER (from files_GN.cpp)

@<TRIPOS>ATOM
      1 C15         2.9789   37.1526   -2.5541 C.ar        1 MOL      -0.0397
      2 C12         3.1981   36.7993   -1.2068 C.ar        1 MOL       0.1203
      3 O17         3.0334   37.5781   -0.1185 O.3         1 MOL      -0.2917
      4 C19         3.7386   36.8072    0.8765 C.3         1 MOL       0.1865
      5 O18         3.8529   35.4301    0.4642 O.3         1 MOL      -0.2923
      6 C16         3.6997   35.5533   -0.8680 C.ar        1 MOL       0.1209
      7 C22         4.0302   34.6156   -1.8633 C.ar        1 MOL      -0.0435
      8 C20         3.8363   34.9600   -3.2173 C.ar        1 MOL      -0.0793
      9 C8          3.2924   36.2192   -3.5758 C.ar        1 MOL      -0.0502
     10 C4          3.1634   36.5848   -4.9313 C.2         1 MOL       0.0106
     11 C1          3.9962   37.5060   -5.5779 C.2         1 MOL       0.1253
     12 C7          5.1163   38.2013   -5.0937 C.2         1 MOL       0.0928
     13 O21         5.9868   38.7686   -5.9627 O.co2       1 MOL      -0.5584
     14 O23         5.3473   38.3710   -3.7714 O.co2       1 MOL      -0.5584
     15 N5          3.5212   37.6532   -6.8192 N.pl3       1 MOL      -0.2108
     16 C2          2.1937   36.2100   -5.8804 C.2         1 MOL       0.0398
     17 N3          2.4770   36.9185   -6.9918 N.2         1 MOL      -0.2144
     18 C6          1.0693   35.3132   -5.8309 C.ar        1 MOL       0.0020
     19 C10         0.9428   34.3441   -4.8043 C.ar        1 MOL      -0.0679
     20 C14        -0.1479   33.4490   -4.7276 C.ar        1 MOL      -0.0234
     21 C26        -0.2448   32.5229   -3.5656 C.3         1 MOL      -0.0285
     22 C27        -0.6037   33.2765   -2.2611 C.3         1 MOL      -0.0583
     23 C13        -1.1341   33.4988   -5.7381 C.ar        1 MOL       0.0829
     24 O25        -2.2303   32.6915   -5.7344 O.3         1 MOL      -0.3383
     25 C11        -1.0323   34.4479   -6.7686 C.ar        1 MOL      -0.0091
     26 C9          0.0477   35.3483   -6.8204 C.ar        1 MOL       0.0835
     27 O24         0.0633   36.2638   -7.8335 O.3         1 MOL      -0.3373
     28 H1          2.6302   38.0853   -2.7781 H           1 MOL       0.0474
     29 H2          3.2114   36.8700    1.8293 H           1 MOL       0.0973
     30 H3          4.7451   37.2200    1.0194 H           1 MOL       0.0973
     31 H4          4.4216   33.7081   -1.6049 H           1 MOL       0.0506
     32 H5          4.1041   34.2882   -3.9428 H           1 MOL       0.0470
     33 H6          3.8595   38.2661   -7.4923 H           1 MOL       0.2580
     34 H7          1.6752   34.2715   -4.0859 H           1 MOL       0.0500
     35 H8          0.7087   32.0027   -3.4314 H           1 MOL       0.0381
     36 H9         -1.0031   31.7516   -3.7258 H           1 MOL       0.0381
     37 H10        -0.6375   32.5716   -1.4264 H           1 MOL       0.0247
     38 H11        -1.5841   33.7494   -2.3600 H           1 MOL       0.0247
     39 H12         0.1372   34.0455   -2.0285 H           1 MOL       0.0247
     40 H13        -1.8905   31.7799   -5.8456 H           1 MOL       0.2463
     41 H14        -1.7700   34.4870   -7.4838 H           1 MOL       0.0450
     42 H15        -0.7300   36.0921   -8.3856 H           1 MOL       0.2473
@<TRIPOS>BOND
     1     1     2  ar
     2     1     9  ar
     3     2     3   1
     4     2     6  ar
     5     3     4   1
     6     4     5   1
     7     5     6   1
     8     6     7  ar
     9     7     8  ar
    10     8     9  ar
    11     9    10   1
    12    10    11   2
    13    10    16   1
    14    11    12   1
    15    11    15   1
    16    12    13  ar
    17    12    14  ar
    18    15    17   1
    19    16    17   2
    20    16    18   1
    21    18    19  ar
    22    18    26  ar
    23    19    20  ar
    24    20    21   1
    25    20    23  ar
    26    21    22   1
    27    23    24   1
    28    23    25  ar
    29    25    26  ar
    30    26    27   1
    31     1    28   1
    32     4    29   1
    33     4    30   1
    34     7    31   1
    35     8    32   1
    36    15    33   1
    37    19    34   1
    38    21    35   1
    39    21    36   1
    40    22    37   1
    41    22    38   1
    42    22    39   1
    43    24    40   1
    44    25    41   1
    45    27    42   1
@<TRIPOS>SUBSTRUCTURE
     1  MOL      1

