@<TRIPOS>MOLECULE
1yc1_ligand_043
    42    45
SMALL
GAST_HUCK
****
This file was generated by PARSER (from files_GN.cpp)

@<TRIPOS>ATOM
      1 C15         5.6871   38.3180   -1.4027 C.ar        1 MOL      -0.0397
      2 C12         6.8474   37.5466   -1.2397 C.ar        1 MOL       0.1203
      3 O17         8.0467   37.7309   -1.8243 O.3         1 MOL      -0.2917
      4 C19         8.7476   36.5356   -1.4263 C.3         1 MOL       0.1865
      5 O18         8.0559   35.8406   -0.3713 O.3         1 MOL      -0.2923
      6 C16         6.8539   36.4478   -0.3960 C.ar        1 MOL       0.1209
      7 C22         5.7009   36.0772    0.3138 C.ar        1 MOL      -0.0435
      8 C20         4.5233   36.8343    0.1426 C.ar        1 MOL      -0.0793
      9 C8          4.4979   37.9654   -0.7171 C.ar        1 MOL      -0.0502
     10 C4          3.2980   38.7024   -0.9250 C.2         1 MOL       0.0106
     11 C1          2.3847   39.1894    0.0195 C.2         1 MOL       0.1253
     12 C7          2.4415   39.1857    1.4267 C.2         1 MOL       0.0928
     13 O21         3.5764   38.8843    2.0985 O.co2       1 MOL      -0.5584
     14 O23         1.4067   39.6743    2.1435 O.co2       1 MOL      -0.5584
     15 N5          1.3748   39.7483   -0.6724 N.pl3       1 MOL      -0.2108
     16 C2          2.7368   39.0420   -2.1620 C.2         1 MOL       0.0398
     17 N3          1.5711   39.6644   -1.9454 N.2         1 MOL      -0.2144
     18 C6          3.1769   38.7540   -3.4677 C.ar        1 MOL       0.0020
     19 C10         2.6460   37.6387   -4.1499 C.ar        1 MOL      -0.0679
     20 C14         3.0047   37.3540   -5.4898 C.ar        1 MOL      -0.0234
     21 C26         2.4112   36.1637   -6.1677 C.3         1 MOL      -0.0285
     22 C27         0.8635   36.1446   -6.2141 C.3         1 MOL      -0.0583
     23 C13         3.9654   38.1886   -6.1209 C.ar        1 MOL       0.0829
     24 O25         4.4356   37.9635   -7.3745 O.3         1 MOL      -0.3383
     25 C11         4.4950   39.3015   -5.4441 C.ar        1 MOL      -0.0091
     26 C9          4.0778   39.6102   -4.1386 C.ar        1 MOL       0.0835
     27 O24         4.5523   40.7437   -3.5606 O.3         1 MOL      -0.3373
     28 H1          5.7280   39.1309   -2.0096 H           1 MOL       0.0474
     29 H2          9.7503   36.7991   -1.0856 H           1 MOL       0.0973
     30 H3          8.8433   35.8726   -2.2913 H           1 MOL       0.0973
     31 H4          5.7148   35.2615    0.9297 H           1 MOL       0.0506
     32 H5          3.6781   36.5398    0.6388 H           1 MOL       0.0470
     33 H6          0.5851   40.1642   -0.2897 H           1 MOL       0.2580
     34 H7          1.9793   37.0314   -3.6673 H           1 MOL       0.0500
     35 H8          2.7531   35.2716   -5.6387 H           1 MOL       0.0381
     36 H9          2.7616   36.0799   -7.1975 H           1 MOL       0.0381
     37 H10         0.5294   35.3202   -6.8473 H           1 MOL       0.0247
     38 H11         0.4706   37.0773   -6.6238 H           1 MOL       0.0247
     39 H12         0.4466   35.9935   -5.2163 H           1 MOL       0.0247
     40 H13         3.6438   37.8068   -7.9322 H           1 MOL       0.2463
     41 H14         5.1710   39.9081   -5.9128 H           1 MOL       0.0450
     42 H15         3.7670   41.3159   -3.4570 H           1 MOL       0.2473
@<TRIPOS>BOND
     1     1     2  ar
     2     1     9  ar
     3     2     3   1
     4     2     6  ar
     5     3     4   1
     6     4     5   1
     7     5     6   1
     8     6     7  ar
     9     7     8  ar
    10     8     9  ar
    11     9    10   1
    12    10    11   2
    13    10    16   1
    14    11    12   1
    15    11    15   1
    16    12    13  ar
    17    12    14  ar
    18    15    17   1
    19    16    17   2
    20    16    18   1
    21    18    19  ar
    22    18    26  ar
    23    19    20  ar
    24    20    21   1
    25    20    23  ar
    26    21    22   1
    27    23    24   1
    28    23    25  ar
    29    25    26  ar
    30    26    27   1
    31     1    28   1
    32     4    29   1
    33     4    30   1
    34     7    31   1
    35     8    32   1
    36    15    33   1
    37    19    34   1
    38    21    35   1
    39    21    36   1
    40    22    37   1
    41    22    38   1
    42    22    39   1
    43    24    40   1
    44    25    41   1
    45    27    42   1
@<TRIPOS>SUBSTRUCTURE
     1  MOL      1

