@<TRIPOS>MOLECULE
1yc1_ligand_045
    42    45
SMALL
GAST_HUCK
****
This file was generated by PARSER (from files_GN.cpp)

@<TRIPOS>ATOM
      1 C15         3.6293   41.4718   -1.6562 C.ar        1 MOL      -0.0397
      2 C12         4.3620   42.6057   -1.2659 C.ar        1 MOL       0.1203
      3 O17         5.0625   43.4397   -2.0556 O.3         1 MOL      -0.2917
      4 C19         5.6946   44.2963   -1.0845 C.3         1 MOL       0.1865
      5 O18         5.1566   44.1000    0.2364 O.3         1 MOL      -0.2923
      6 C16         4.4216   42.9888    0.0640 C.ar        1 MOL       0.1209
      7 C22         3.7755   42.2403    1.0583 C.ar        1 MOL      -0.0435
      8 C20         3.0905   41.0678    0.6875 C.ar        1 MOL      -0.0793
      9 C8          2.9751   40.6839   -0.6729 C.ar        1 MOL      -0.0502
     10 C4          2.2688   39.5030   -1.0338 C.2         1 MOL       0.0106
     11 C1          0.9864   39.1000   -0.6321 C.2         1 MOL       0.1253
     12 C7          0.0226   39.6887    0.2190 C.2         1 MOL       0.0928
     13 O21         0.2342   40.8193    0.9256 O.co2       1 MOL      -0.5584
     14 O23        -1.1857   39.1084    0.3907 O.co2       1 MOL      -0.5584
     15 N5          0.7349   37.9481   -1.2734 N.pl3       1 MOL      -0.2108
     16 C2          2.7042   38.5071   -1.9226 C.2         1 MOL       0.0398
     17 N3          1.7245   37.5918   -2.0220 N.2         1 MOL      -0.2144
     18 C6          3.9427   38.3770   -2.6076 C.ar        1 MOL       0.0020
     19 C10         5.1622   38.6529   -1.9447 C.ar        1 MOL      -0.0679
     20 C14         6.4088   38.5618   -2.6071 C.ar        1 MOL      -0.0234
     21 C26         7.6658   38.8684   -1.8675 C.3         1 MOL      -0.0285
     22 C27         8.4016   37.5921   -1.4020 C.3         1 MOL      -0.0583
     23 C13         6.4275   38.1645   -3.9665 C.ar        1 MOL       0.0829
     24 O25         7.6014   38.0568   -4.6457 O.3         1 MOL      -0.3383
     25 C11         5.2217   37.8782   -4.6353 C.ar        1 MOL      -0.0091
     26 C9          3.9896   37.9705   -3.9628 C.ar        1 MOL       0.0835
     27 O24         2.8606   37.6879   -4.6617 O.3         1 MOL      -0.3373
     28 H1          3.5944   41.2227   -2.6473 H           1 MOL       0.0474
     29 H2          5.5525   45.3381   -1.3769 H           1 MOL       0.0973
     30 H3          6.7686   44.0893   -1.0670 H           1 MOL       0.0973
     31 H4          3.8247   42.5236    2.0384 H           1 MOL       0.0506
     32 H5          2.6866   40.4915    1.4264 H           1 MOL       0.0470
     33 H6         -0.0899   37.4443   -1.1851 H           1 MOL       0.2580
     34 H7          5.1473   38.9121   -0.9547 H           1 MOL       0.0500
     35 H8          7.4596   39.4813   -0.9867 H           1 MOL       0.0381
     36 H9          8.3286   39.4589   -2.5031 H           1 MOL       0.0381
     37 H10         9.2956   37.8665   -0.8393 H           1 MOL       0.0247
     38 H11         8.7047   36.9846   -2.2572 H           1 MOL       0.0247
     39 H12         7.7539   36.9974   -0.7547 H           1 MOL       0.0247
     40 H13         7.4664   37.3409   -5.3053 H           1 MOL       0.2463
     41 H14         5.2401   37.6065   -5.6218 H           1 MOL       0.0450
     42 H15         2.5991   38.5380   -5.0727 H           1 MOL       0.2473
@<TRIPOS>BOND
     1     1     2  ar
     2     1     9  ar
     3     2     3   1
     4     2     6  ar
     5     3     4   1
     6     4     5   1
     7     5     6   1
     8     6     7  ar
     9     7     8  ar
    10     8     9  ar
    11     9    10   1
    12    10    11   2
    13    10    16   1
    14    11    12   1
    15    11    15   1
    16    12    13  ar
    17    12    14  ar
    18    15    17   1
    19    16    17   2
    20    16    18   1
    21    18    19  ar
    22    18    26  ar
    23    19    20  ar
    24    20    21   1
    25    20    23  ar
    26    21    22   1
    27    23    24   1
    28    23    25  ar
    29    25    26  ar
    30    26    27   1
    31     1    28   1
    32     4    29   1
    33     4    30   1
    34     7    31   1
    35     8    32   1
    36    15    33   1
    37    19    34   1
    38    21    35   1
    39    21    36   1
    40    22    37   1
    41    22    38   1
    42    22    39   1
    43    24    40   1
    44    25    41   1
    45    27    42   1
@<TRIPOS>SUBSTRUCTURE
     1  MOL      1

