@<TRIPOS>MOLECULE
1yc1_ligand_031
    42    45
SMALL
GAST_HUCK
****
This file was generated by PARSER (from files_GN.cpp)

@<TRIPOS>ATOM
      1 C15         3.9381   38.8642   -1.4833 C.ar        1 MOL      -0.0397
      2 C12         3.3664   39.3774   -0.3107 C.ar        1 MOL       0.1203
      3 O17         3.9708   40.1228    0.6315 O.3         1 MOL      -0.2917
      4 C19         2.9593   40.1600    1.6570 C.3         1 MOL       0.1865
      5 O18         1.6746   39.7540    1.1437 O.3         1 MOL      -0.2923
      6 C16         2.0274   39.1665   -0.0132 C.ar        1 MOL       0.1209
      7 C22         1.2134   38.4212   -0.8800 C.ar        1 MOL      -0.0435
      8 C20         1.7824   37.8642   -2.0410 C.ar        1 MOL      -0.0793
      9 C8          3.1453   38.0925   -2.3705 C.ar        1 MOL      -0.0502
     10 C4          3.7052   37.5591   -3.5640 C.2         1 MOL       0.0106
     11 C1          3.1508   37.5597   -4.8496 C.2         1 MOL       0.1253
     12 C7          1.9361   38.0988   -5.3367 C.2         1 MOL       0.0928
     13 O21         1.2544   39.0656   -4.6826 O.co2       1 MOL      -0.5584
     14 O23         1.5013   37.7678   -6.5671 O.co2       1 MOL      -0.5584
     15 N5          4.0327   36.9407   -5.6472 N.pl3       1 MOL      -0.2108
     16 C2          4.9419   36.9177   -3.7012 C.2         1 MOL       0.0398
     17 N3          5.0825   36.5673   -4.9910 N.2         1 MOL      -0.2144
     18 C6          5.9070   36.5745   -2.7188 C.ar        1 MOL       0.0020
     19 C10         5.5158   35.8568   -1.5670 C.ar        1 MOL      -0.0679
     20 C14         6.4605   35.4667   -0.5798 C.ar        1 MOL      -0.0234
     21 C26         6.0274   34.6529    0.5914 C.3         1 MOL      -0.0285
     22 C27         6.1668   35.3890    1.9475 C.3         1 MOL      -0.0583
     23 C13         7.8169   35.8372   -0.7683 C.ar        1 MOL       0.0829
     24 O25         8.7908   35.4918    0.1122 O.3         1 MOL      -0.3383
     25 C11         8.2041   36.5682   -1.9025 C.ar        1 MOL      -0.0091
     26 C9          7.2693   36.9169   -2.8844 C.ar        1 MOL       0.0835
     27 O24         7.7132   37.6031   -3.9704 O.3         1 MOL      -0.3373
     28 H1          4.9211   39.0654   -1.6852 H           1 MOL       0.0474
     29 H2          2.8877   41.1743    2.0540 H           1 MOL       0.0973
     30 H3          3.2496   39.4930    2.4717 H           1 MOL       0.0973
     31 H4          0.2240   38.2786   -0.6695 H           1 MOL       0.0506
     32 H5          1.1891   37.2948   -2.6468 H           1 MOL       0.0470
     33 H6          3.9126   36.7976   -6.5990 H           1 MOL       0.2580
     34 H7          4.5328   35.5903   -1.4534 H           1 MOL       0.0500
     35 H8          6.6239   33.7350    0.6218 H           1 MOL       0.0381
     36 H9          4.9813   34.3484    0.4982 H           1 MOL       0.0381
     37 H10         5.8485   34.7311    2.7585 H           1 MOL       0.0247
     38 H11         5.5565   36.2936    1.9507 H           1 MOL       0.0247
     39 H12         7.2052   35.6640    2.1393 H           1 MOL       0.0247
     40 H13         8.8929   34.5202    0.0233 H           1 MOL       0.2463
     41 H14         9.1884   36.8366   -2.0175 H           1 MOL       0.0450
     42 H15         7.5473   37.0023   -4.7330 H           1 MOL       0.2473
@<TRIPOS>BOND
     1     1     2  ar
     2     1     9  ar
     3     2     3   1
     4     2     6  ar
     5     3     4   1
     6     4     5   1
     7     5     6   1
     8     6     7  ar
     9     7     8  ar
    10     8     9  ar
    11     9    10   1
    12    10    11   2
    13    10    16   1
    14    11    12   1
    15    11    15   1
    16    12    13  ar
    17    12    14  ar
    18    15    17   1
    19    16    17   2
    20    16    18   1
    21    18    19  ar
    22    18    26  ar
    23    19    20  ar
    24    20    21   1
    25    20    23  ar
    26    21    22   1
    27    23    24   1
    28    23    25  ar
    29    25    26  ar
    30    26    27   1
    31     1    28   1
    32     4    29   1
    33     4    30   1
    34     7    31   1
    35     8    32   1
    36    15    33   1
    37    19    34   1
    38    21    35   1
    39    21    36   1
    40    22    37   1
    41    22    38   1
    42    22    39   1
    43    24    40   1
    44    25    41   1
    45    27    42   1
@<TRIPOS>SUBSTRUCTURE
     1  MOL      1

