@<TRIPOS>MOLECULE
1yc1_ligand_035
    42    45
SMALL
GAST_HUCK
****
This file was generated by PARSER (from files_GN.cpp)

@<TRIPOS>ATOM
      1 C15         2.2083   39.3517   -2.8679 C.ar        1 MOL      -0.0397
      2 C12         1.4090   40.3671   -3.4136 C.ar        1 MOL       0.1203
      3 O17         0.1022   40.2950   -3.7466 O.3         1 MOL      -0.2917
      4 C19        -0.1233   41.5923   -4.3336 C.3         1 MOL       0.1865
      5 O18         0.9863   42.4811   -4.1214 O.3         1 MOL      -0.2923
      6 C16         1.9207   41.6407   -3.6411 C.ar        1 MOL       0.1209
      7 C22         3.2608   41.9370   -3.3441 C.ar        1 MOL      -0.0435
      8 C20         4.0839   40.9265   -2.8071 C.ar        1 MOL      -0.0793
      9 C8          3.5605   39.6358   -2.5484 C.ar        1 MOL      -0.0502
     10 C4          4.3572   38.6863   -1.8760 C.2         1 MOL       0.0106
     11 C1          5.5066   38.0846   -2.3912 C.2         1 MOL       0.1253
     12 C7          6.0959   38.2078   -3.6601 C.2         1 MOL       0.0928
     13 O21         7.4119   38.5151   -3.7880 O.co2       1 MOL      -0.5584
     14 O23         5.3501   38.1243   -4.7885 O.co2       1 MOL      -0.5584
     15 N5          5.9970   37.3102   -1.4143 N.pl3       1 MOL      -0.2108
     16 C2          4.2326   38.2256   -0.5473 C.2         1 MOL       0.0398
     17 N3          5.2650   37.3770   -0.3564 N.2         1 MOL      -0.2144
     18 C6          3.2938   38.5410    0.4939 C.ar        1 MOL       0.0020
     19 C10         2.4748   39.6983    0.4162 C.ar        1 MOL      -0.0679
     20 C14         1.4992   40.0249    1.3867 C.ar        1 MOL      -0.0234
     21 C26         0.6284   41.2237    1.2011 C.3         1 MOL      -0.0285
     22 C27         0.9485   42.3595    2.1939 C.3         1 MOL      -0.0583
     23 C13         1.3738   39.1865    2.5155 C.ar        1 MOL       0.0829
     24 O25         0.4552   39.4639    3.4824 O.3         1 MOL      -0.3383
     25 C11         2.1935   38.0550    2.6428 C.ar        1 MOL      -0.0091
     26 C9          3.1431   37.7323    1.6545 C.ar        1 MOL       0.0835
     27 O24         3.8699   36.6083    1.8807 O.3         1 MOL      -0.3373
     28 H1          1.8006   38.4381   -2.6690 H           1 MOL       0.0474
     29 H2         -1.0253   42.0282   -3.9025 H           1 MOL       0.0973
     30 H3         -0.2806   41.4744   -5.4096 H           1 MOL       0.0973
     31 H4          3.6253   42.8835   -3.4968 H           1 MOL       0.0506
     32 H5          5.0442   41.1604   -2.5499 H           1 MOL       0.0470
     33 H6          6.7982   36.7617   -1.4990 H           1 MOL       0.2580
     34 H7          2.5992   40.3552   -0.3549 H           1 MOL       0.0500
     35 H8         -0.4214   40.9311    1.3055 H           1 MOL       0.0381
     36 H9          0.7329   41.6258    0.1850 H           1 MOL       0.0381
     37 H10         0.3023   43.2128    1.9895 H           1 MOL       0.0247
     38 H11         1.9852   42.6740    2.0869 H           1 MOL       0.0247
     39 H12         0.7786   42.0384    3.2210 H           1 MOL       0.0247
     40 H13         0.8314   39.1700    4.3342 H           1 MOL       0.2463
     41 H14         2.0896   37.4456    3.4618 H           1 MOL       0.0450
     42 H15         4.8083   36.8827    1.8361 H           1 MOL       0.2473
@<TRIPOS>BOND
     1     1     2  ar
     2     1     9  ar
     3     2     3   1
     4     2     6  ar
     5     3     4   1
     6     4     5   1
     7     5     6   1
     8     6     7  ar
     9     7     8  ar
    10     8     9  ar
    11     9    10   1
    12    10    11   2
    13    10    16   1
    14    11    12   1
    15    11    15   1
    16    12    13  ar
    17    12    14  ar
    18    15    17   1
    19    16    17   2
    20    16    18   1
    21    18    19  ar
    22    18    26  ar
    23    19    20  ar
    24    20    21   1
    25    20    23  ar
    26    21    22   1
    27    23    24   1
    28    23    25  ar
    29    25    26  ar
    30    26    27   1
    31     1    28   1
    32     4    29   1
    33     4    30   1
    34     7    31   1
    35     8    32   1
    36    15    33   1
    37    19    34   1
    38    21    35   1
    39    21    36   1
    40    22    37   1
    41    22    38   1
    42    22    39   1
    43    24    40   1
    44    25    41   1
    45    27    42   1
@<TRIPOS>SUBSTRUCTURE
     1  MOL      1

