@<TRIPOS>MOLECULE
1yc1_ligand_021
    42    45
SMALL
GAST_HUCK
****
This file was generated by PARSER (from files_GN.cpp)

@<TRIPOS>ATOM
      1 C15         2.9308   35.8775   -1.3853 C.ar        1 MOL      -0.0397
      2 C12         3.9424   34.9293   -1.1614 C.ar        1 MOL       0.1203
      3 O17         4.6212   34.7075   -0.0185 O.3         1 MOL      -0.2917
      4 C19         5.6466   33.8065   -0.4691 C.3         1 MOL       0.1865
      5 O18         5.3404   33.2619   -1.7712 O.3         1 MOL      -0.2923
      6 C16         4.3566   34.0837   -2.1777 C.ar        1 MOL       0.1209
      7 C22         3.7589   34.1391   -3.4453 C.ar        1 MOL      -0.0435
      8 C20         2.7621   35.1047   -3.6901 C.ar        1 MOL      -0.0793
      9 C8          2.3400   35.9941   -2.6694 C.ar        1 MOL      -0.0502
     10 C4          1.3425   36.9752   -2.9187 C.2         1 MOL       0.0106
     11 C1          1.2396   38.2464   -2.3477 C.2         1 MOL       0.1253
     12 C7          2.1567   38.9498   -1.5438 C.2         1 MOL       0.0928
     13 O21         1.7598   39.5249   -0.3798 O.co2       1 MOL      -0.5584
     14 O23         3.4199   39.1940   -1.9631 O.co2       1 MOL      -0.5584
     15 N5          0.0822   38.7717   -2.7716 N.pl3       1 MOL      -0.2108
     16 C2          0.2109   36.8571   -3.7320 C.2         1 MOL       0.0398
     17 N3         -0.5210   37.9749   -3.5937 N.2         1 MOL      -0.2144
     18 C6         -0.2109   35.7733   -4.5335 C.ar        1 MOL       0.0020
     19 C10        -0.7790   34.6346   -3.9191 C.ar        1 MOL      -0.0679
     20 C14        -1.2163   33.5133   -4.6745 C.ar        1 MOL      -0.0234
     21 C26        -1.8519   32.3099   -4.0505 C.3         1 MOL      -0.0285
     22 C27        -2.3292   32.3858   -2.5738 C.3         1 MOL      -0.0583
     23 C13        -1.0434   33.5547   -6.0861 C.ar        1 MOL       0.0829
     24 O25        -1.4179   32.5399   -6.9168 O.3         1 MOL      -0.3383
     25 C11        -0.4766   34.6878   -6.7012 C.ar        1 MOL      -0.0091
     26 C9         -0.0658   35.7978   -5.9408 C.ar        1 MOL       0.0835
     27 O24         0.4913   36.8466   -6.6020 O.3         1 MOL      -0.3373
     28 H1          2.6390   36.4745   -0.6093 H           1 MOL       0.0474
     29 H2          5.7511   32.9899    0.2515 H           1 MOL       0.0973
     30 H3          6.6005   34.3421   -0.5196 H           1 MOL       0.0973
     31 H4          4.0580   33.4995   -4.1845 H           1 MOL       0.0506
     32 H5          2.3692   35.1630   -4.6295 H           1 MOL       0.0470
     33 H6         -0.2531   39.6383   -2.5026 H           1 MOL       0.2580
     34 H7         -0.8761   34.6377   -2.9015 H           1 MOL       0.0500
     35 H8         -1.1475   31.4742   -4.1206 H           1 MOL       0.0381
     36 H9         -2.7376   32.0528   -4.6467 H           1 MOL       0.0381
     37 H10        -2.8179   31.4541   -2.2857 H           1 MOL       0.0247
     38 H11        -3.0472   33.2010   -2.4549 H           1 MOL       0.0247
     39 H12        -1.4814   32.5460   -1.9057 H           1 MOL       0.0247
     40 H13        -1.3861   31.7008   -6.4133 H           1 MOL       0.2463
     41 H14        -0.3660   34.7121   -7.7168 H           1 MOL       0.0450
     42 H15        -0.0148   37.6478   -6.3388 H           1 MOL       0.2473
@<TRIPOS>BOND
     1     1     2  ar
     2     1     9  ar
     3     2     3   1
     4     2     6  ar
     5     3     4   1
     6     4     5   1
     7     5     6   1
     8     6     7  ar
     9     7     8  ar
    10     8     9  ar
    11     9    10   1
    12    10    11   2
    13    10    16   1
    14    11    12   1
    15    11    15   1
    16    12    13  ar
    17    12    14  ar
    18    15    17   1
    19    16    17   2
    20    16    18   1
    21    18    19  ar
    22    18    26  ar
    23    19    20  ar
    24    20    21   1
    25    20    23  ar
    26    21    22   1
    27    23    24   1
    28    23    25  ar
    29    25    26  ar
    30    26    27   1
    31     1    28   1
    32     4    29   1
    33     4    30   1
    34     7    31   1
    35     8    32   1
    36    15    33   1
    37    19    34   1
    38    21    35   1
    39    21    36   1
    40    22    37   1
    41    22    38   1
    42    22    39   1
    43    24    40   1
    44    25    41   1
    45    27    42   1
@<TRIPOS>SUBSTRUCTURE
     1  MOL      1

