@<TRIPOS>MOLECULE
1yc1_ligand_026
    42    45
SMALL
GAST_HUCK
****
This file was generated by PARSER (from files_GN.cpp)

@<TRIPOS>ATOM
      1 C15         5.3322   40.8312   -3.8595 C.ar        1 MOL      -0.0397
      2 C12         5.6179   42.2037   -3.8051 C.ar        1 MOL       0.1203
      3 O17         5.2334   43.1541   -4.6768 O.3         1 MOL      -0.2917
      4 C19         5.9826   44.2934   -4.1985 C.3         1 MOL       0.1865
      5 O18         6.4613   44.0744   -2.8571 O.3         1 MOL      -0.2923
      6 C16         6.3251   42.7370   -2.7417 C.ar        1 MOL       0.1209
      7 C22         6.7888   41.9181   -1.6973 C.ar        1 MOL      -0.0435
      8 C20         6.5325   40.5327   -1.7513 C.ar        1 MOL      -0.0793
      9 C8          5.7782   39.9798   -2.8172 C.ar        1 MOL      -0.0502
     10 C4          5.4030   38.6106   -2.8220 C.2         1 MOL       0.0106
     11 C1          5.6230   37.7207   -3.8748 C.2         1 MOL       0.1253
     12 C7          6.3182   37.9424   -5.0702 C.2         1 MOL       0.0928
     13 O21         5.6563   37.8877   -6.2498 O.co2       1 MOL      -0.5584
     14 O23         7.6068   38.3680   -5.0486 O.co2       1 MOL      -0.5584
     15 N5          5.0344   36.5683   -3.5512 N.pl3       1 MOL      -0.2108
     16 C2          4.6514   37.8920   -1.8730 C.2         1 MOL       0.0398
     17 N3          4.4797   36.6549   -2.3899 N.2         1 MOL      -0.2144
     18 C6          4.0863   38.2777   -0.6136 C.ar        1 MOL       0.0020
     19 C10         3.7407   39.6224   -0.3481 C.ar        1 MOL      -0.0679
     20 C14         3.2803   40.0489    0.9196 C.ar        1 MOL      -0.0234
     21 C26         3.0681   41.5062    1.1762 C.3         1 MOL      -0.0285
     22 C27         1.6245   41.9457    0.8559 C.3         1 MOL      -0.0583
     23 C13         3.0529   39.0793    1.9232 C.ar        1 MOL       0.0829
     24 O25         2.5732   39.3972    3.1507 O.3         1 MOL      -0.3383
     25 C11         3.3211   37.7273    1.6564 C.ar        1 MOL      -0.0091
     26 C9          3.8415   37.3230    0.4127 C.ar        1 MOL       0.0835
     27 O24         4.0955   35.9961    0.2724 O.3         1 MOL      -0.3373
     28 H1          4.7674   40.4713   -4.6351 H           1 MOL       0.0474
     29 H2          5.3535   45.1814   -4.2221 H           1 MOL       0.0973
     30 H3          6.8355   44.4549   -4.8608 H           1 MOL       0.0973
     31 H4          7.2832   42.3279   -0.9035 H           1 MOL       0.0506
     32 H5          6.8733   39.9374   -0.9926 H           1 MOL       0.0470
     33 H6          5.0417   35.7690   -4.0993 H           1 MOL       0.2580
     34 H7          3.8033   40.3164   -1.0884 H           1 MOL       0.0500
     35 H8          3.7614   42.0962    0.5683 H           1 MOL       0.0381
     36 H9          3.2941   41.7459    2.2175 H           1 MOL       0.0381
     37 H10         1.5160   43.0136    1.0526 H           1 MOL       0.0247
     38 H11         0.9093   41.4037    1.4766 H           1 MOL       0.0247
     39 H12         1.3988   41.7588   -0.1950 H           1 MOL       0.0247
     40 H13         1.7451   39.9012    2.9906 H           1 MOL       0.2463
     41 H14         3.1366   37.0292    2.3841 H           1 MOL       0.0450
     42 H15         3.4816   35.6985   -0.4330 H           1 MOL       0.2473
@<TRIPOS>BOND
     1     1     2  ar
     2     1     9  ar
     3     2     3   1
     4     2     6  ar
     5     3     4   1
     6     4     5   1
     7     5     6   1
     8     6     7  ar
     9     7     8  ar
    10     8     9  ar
    11     9    10   1
    12    10    11   2
    13    10    16   1
    14    11    12   1
    15    11    15   1
    16    12    13  ar
    17    12    14  ar
    18    15    17   1
    19    16    17   2
    20    16    18   1
    21    18    19  ar
    22    18    26  ar
    23    19    20  ar
    24    20    21   1
    25    20    23  ar
    26    21    22   1
    27    23    24   1
    28    23    25  ar
    29    25    26  ar
    30    26    27   1
    31     1    28   1
    32     4    29   1
    33     4    30   1
    34     7    31   1
    35     8    32   1
    36    15    33   1
    37    19    34   1
    38    21    35   1
    39    21    36   1
    40    22    37   1
    41    22    38   1
    42    22    39   1
    43    24    40   1
    44    25    41   1
    45    27    42   1
@<TRIPOS>SUBSTRUCTURE
     1  MOL      1

