@<TRIPOS>MOLECULE
1z95_ligand_009
    43    44
SMALL
GAST_HUCK
****
This file was generated by PARSER (from files_GN.cpp)

@<TRIPOS>ATOM
      1 C16        27.9197    3.7969    3.3635 C.ar        1 MOL      -0.0388
      2 C17        28.3406    5.0511    3.8382 C.ar        1 MOL      -0.0264
      3 C18        27.4670    5.8438    4.6029 C.ar        1 MOL       0.1325
      4 F18        27.8582    7.0125    5.0296 F           1 MOL      -0.1834
      5 C19        26.1740    5.3824    4.8927 C.ar        1 MOL      -0.0264
      6 C20        25.7532    4.1249    4.4194 C.ar        1 MOL      -0.0388
      7 C15        26.6270    3.3147    3.6629 C.ar        1 MOL       0.0840
      8 S14        26.0682    1.7966    3.0216 S.o2        1 MOL      -0.0030
      9 O14        24.7523    1.2797    3.7629 O.2         1 MOL      -0.1699
     10 O15        25.5285    2.1668    1.5757 O.2         1 MOL      -0.1699
     11 C13        27.2393    0.4472    2.7080 C.3         1 MOL       0.1063
     12 C11        27.6298   -0.4902    3.9051 C.3         1 MOL       0.1678
     13 O11        26.4483   -0.8169    4.6481 O.3         1 MOL      -0.3823
     14 C12        28.2057   -1.8287    3.3374 C.3         1 MOL      -0.0271
     15 C10        28.5851    0.0763    4.8571 C.2         1 MOL       0.2588
     16 O10        29.0547    1.1968    4.6943 O.2         1 MOL      -0.3300
     17 N9         28.9490   -0.6390    5.9121 N.am        1 MOL      -0.2188
     18 C1         29.9310   -0.3655    6.8112 C.ar        1 MOL       0.1074
     19 C2         31.2353    0.0195    6.4227 C.ar        1 MOL       0.0010
     20 C6         29.6576   -0.5631    8.1716 C.ar        1 MOL      -0.0005
     21 C5         30.6221   -0.2619    9.1421 C.ar        1 MOL      -0.0119
     22 C4         31.9076    0.1811    8.7588 C.ar        1 MOL       0.1068
     23 C8         32.7179    0.5102    9.7286 C.1         1 MOL       0.1050
     24 N8         33.3874    0.8250   10.6067 N.1         1 MOL      -0.3259
     25 C3         32.2523    0.2788    7.3750 C.ar        1 MOL       0.0666
     26 C7         33.6130    0.6885    6.9084 C.3         1 MOL       0.3787
     27 F7B        33.7663    2.0313    7.1345 F           1 MOL      -0.2186
     28 F7C        34.5970   -0.0093    7.5666 F           1 MOL      -0.2186
     29 F7A        33.8632    0.4846    5.5726 F           1 MOL      -0.2186
     30 H1         28.5613    3.2446    2.7960 H           1 MOL       0.0626
     31 H2         29.2779    5.3904    3.6157 H           1 MOL       0.0604
     32 H3         25.5317    5.9571    5.4398 H           1 MOL       0.0604
     33 H4         24.8037    3.8150    4.6234 H           1 MOL       0.0626
     34 H5         28.1361    0.8584    2.2517 H           1 MOL       0.0518
     35 H6         26.7580   -0.1596    1.9410 H           1 MOL       0.0518
     36 H7         25.8259   -1.1950    3.9923 H           1 MOL       0.2079
     37 H8         28.4346   -2.5379    4.1340 H           1 MOL       0.0244
     38 H9         29.1150   -1.6430    2.7637 H           1 MOL       0.0244
     39 H10        27.4772   -2.3074    2.6820 H           1 MOL       0.0244
     40 H11        28.4528   -1.4510    6.0817 H           1 MOL       0.2319
     41 H12        31.4343    0.1155    5.4211 H           1 MOL       0.0781
     42 H13        28.7347   -0.8728    8.4728 H           1 MOL       0.0767
     43 H14        30.3669   -0.3601   10.1317 H           1 MOL       0.0766
@<TRIPOS>BOND
     1     1     2  ar
     2     1     7  ar
     3     2     3  ar
     4     3     4   1
     5     3     5  ar
     6     5     6  ar
     7     6     7  ar
     8     7     8   1
     9     8     9   2
    10     8    10   2
    11     8    11   1
    12    11    12   1
    13    12    13   1
    14    12    14   1
    15    12    15   1
    16    15    16   2
    17    15    17  am
    18    17    18   1
    19    18    19  ar
    20    18    20  ar
    21    19    25  ar
    22    20    21  ar
    23    21    22  ar
    24    22    23   1
    25    22    25  ar
    26    23    24   3
    27    25    26   1
    28    26    27   1
    29    26    28   1
    30    26    29   1
    31     1    30   1
    32     2    31   1
    33     5    32   1
    34     6    33   1
    35    11    34   1
    36    11    35   1
    37    13    36   1
    38    14    37   1
    39    14    38   1
    40    14    39   1
    41    17    40   1
    42    19    41   1
    43    20    42   1
    44    21    43   1
@<TRIPOS>SUBSTRUCTURE
     1  MOL      1

