@<TRIPOS>MOLECULE
1z95_ligand_049
    43    44
SMALL
GAST_HUCK
****
This file was generated by PARSER (from files_GN.cpp)

@<TRIPOS>ATOM
      1 C16        28.3172   -0.5995   13.7120 C.ar        1 MOL      -0.0388
      2 C17        27.8964   -0.6404   15.0562 C.ar        1 MOL      -0.0264
      3 C18        28.7983   -1.0276   16.0638 C.ar        1 MOL       0.1325
      4 F18        28.4115   -1.0799   17.3073 F           1 MOL      -0.1834
      5 C19        30.1162   -1.3757   15.7228 C.ar        1 MOL      -0.0264
      6 C20        30.5306   -1.3353   14.3804 C.ar        1 MOL      -0.0388
      7 C15        29.6416   -0.9401   13.3583 C.ar        1 MOL       0.0840
      8 S14        30.1829   -0.9673   11.6977 S.o2        1 MOL      -0.0030
      9 O14        31.7179   -0.5585   11.5988 O.2         1 MOL      -0.1699
     10 O15        30.2014   -2.4953   11.2619 O.2         1 MOL      -0.1699
     11 C13        29.1535   -0.1258   10.4707 C.3         1 MOL       0.1063
     12 C11        29.0945    1.4341   10.5280 C.3         1 MOL       0.1678
     13 O11        28.6365    1.8324   11.8256 O.3         1 MOL      -0.3823
     14 C12        30.4917    2.0934   10.3720 C.3         1 MOL      -0.0271
     15 C10        28.1918    1.9238    9.4856 C.2         1 MOL       0.2588
     16 O10        27.1655    2.5002    9.8221 O.2         1 MOL      -0.3300
     17 N9         28.5045    1.7354    8.2104 N.am        1 MOL      -0.2188
     18 C1         27.8591    2.0458    7.0450 C.ar        1 MOL       0.1074
     19 C2         28.5756    1.7737    5.8605 C.ar        1 MOL       0.0010
     20 C6         26.5603    2.5887    6.9196 C.ar        1 MOL      -0.0005
     21 C5         25.9884    2.8178    5.6595 C.ar        1 MOL      -0.0119
     22 C4         26.7104    2.5287    4.4865 C.ar        1 MOL       0.1068
     23 C8         26.1207    2.7531    3.3442 C.1         1 MOL       0.1050
     24 N8         25.6065    2.9455    2.3318 N.1         1 MOL      -0.3259
     25 C3         28.0364    2.0114    4.5698 C.ar        1 MOL       0.0666
     26 C7         28.8615    1.7467    3.3457 C.3         1 MOL       0.3787
     27 F7B        28.2495    0.8054    2.5541 F           1 MOL      -0.2186
     28 F7C        28.9823    2.9182    2.6418 F           1 MOL      -0.2186
     29 F7A        30.1430    1.2969    3.5707 F           1 MOL      -0.2186
     30 H1         27.6390   -0.3360   12.9963 H           1 MOL       0.0626
     31 H2         26.9310   -0.3965   15.2962 H           1 MOL       0.0604
     32 H3         30.7729   -1.6713   16.4423 H           1 MOL       0.0604
     33 H4         31.4843   -1.6176   14.1508 H           1 MOL       0.0626
     34 H5         28.1488   -0.5277   10.5781 H           1 MOL       0.0518
     35 H6         29.5206   -0.4461    9.4959 H           1 MOL       0.0518
     36 H7         27.7234    1.4861   11.9010 H           1 MOL       0.2079
     37 H8         30.3962    3.1682   10.2252 H           1 MOL       0.0244
     38 H9         31.0239    1.6779    9.5146 H           1 MOL       0.0244
     39 H10        31.1100    1.9379   11.2577 H           1 MOL       0.0244
     40 H11        29.3505    1.2880    8.0750 H           1 MOL       0.2319
     41 H12        29.5213    1.3872    5.9443 H           1 MOL       0.0781
     42 H13        25.9942    2.8066    7.7334 H           1 MOL       0.0767
     43 H14        25.0358    3.1968    5.6106 H           1 MOL       0.0766
@<TRIPOS>BOND
     1     1     2  ar
     2     1     7  ar
     3     2     3  ar
     4     3     4   1
     5     3     5  ar
     6     5     6  ar
     7     6     7  ar
     8     7     8   1
     9     8     9   2
    10     8    10   2
    11     8    11   1
    12    11    12   1
    13    12    13   1
    14    12    14   1
    15    12    15   1
    16    15    16   2
    17    15    17  am
    18    17    18   1
    19    18    19  ar
    20    18    20  ar
    21    19    25  ar
    22    20    21  ar
    23    21    22  ar
    24    22    23   1
    25    22    25  ar
    26    23    24   3
    27    25    26   1
    28    26    27   1
    29    26    28   1
    30    26    29   1
    31     1    30   1
    32     2    31   1
    33     5    32   1
    34     6    33   1
    35    11    34   1
    36    11    35   1
    37    13    36   1
    38    14    37   1
    39    14    38   1
    40    14    39   1
    41    17    40   1
    42    19    41   1
    43    20    42   1
    44    21    43   1
@<TRIPOS>SUBSTRUCTURE
     1  MOL      1

