@<TRIPOS>MOLECULE
1z95_ligand_000
    43    44
SMALL
GAST_HUCK
****
This file was generated by PARSER (from files_GN.cpp)

@<TRIPOS>ATOM
      1 C16        28.1494    3.8117    3.4407 C.ar        1 MOL      -0.0388
      2 C17        28.4155    5.1255    3.8725 C.ar        1 MOL      -0.0264
      3 C18        27.5469    5.7603    4.7776 C.ar        1 MOL       0.1325
      4 F18        27.7800    6.9885    5.1541 F           1 MOL      -0.1834
      5 C19        26.4193    5.0706    5.2634 C.ar        1 MOL      -0.0264
      6 C20        26.1598    3.7550    4.8401 C.ar        1 MOL      -0.0388
      7 C15        27.0192    3.1149    3.9194 C.ar        1 MOL       0.0840
      8 S14        26.5660    1.5594    3.2703 S.o2        1 MOL      -0.0030
      9 O14        25.4054    0.8699    4.1122 O.2         1 MOL      -0.1699
     10 O15        25.8631    1.9331    1.8920 O.2         1 MOL      -0.1699
     11 C13        27.8419    0.3583    2.8013 C.3         1 MOL       0.1063
     12 C11        28.3761   -0.5813    3.9318 C.3         1 MOL       0.1678
     13 O11        27.2374   -1.2198    4.5296 O.3         1 MOL      -0.3823
     14 C12        29.2361   -1.7260    3.3132 C.3         1 MOL      -0.0271
     15 C10        29.1771    0.0834    4.9658 C.2         1 MOL       0.2588
     16 O10        29.7820    1.1184    4.6990 O.2         1 MOL      -0.3300
     17 N9         29.3562   -0.5148    6.1419 N.am        1 MOL      -0.2188
     18 C1         30.1828   -0.1452    7.1599 C.ar        1 MOL       0.1074
     19 C2         29.6202    0.0066    8.4429 C.ar        1 MOL       0.0010
     20 C6         31.5817   -0.0317    7.0129 C.ar        1 MOL      -0.0005
     21 C5         32.3932    0.2368    8.1282 C.ar        1 MOL      -0.0119
     22 C4         31.8162    0.4260    9.4061 C.ar        1 MOL       0.1068
     23 C8         32.6160    0.6903   10.4033 C.1         1 MOL       0.1050
     24 N8         33.2979    0.9386   11.3008 N.1         1 MOL      -0.3259
     25 C3         30.4010    0.3358    9.5774 C.ar        1 MOL       0.0666
     26 C7         29.7390    0.5862   10.9040 C.3         1 MOL       0.3787
     27 F7B        30.1909   -0.3185   11.8336 F           1 MOL      -0.2186
     28 F7C        30.0236    1.8582   11.3426 F           1 MOL      -0.2186
     29 F7A        28.3664    0.4860   10.9014 F           1 MOL      -0.2186
     30 H1         28.7717    3.3790    2.7591 H           1 MOL       0.0626
     31 H2         29.2309    5.6240    3.5101 H           1 MOL       0.0604
     32 H3         25.7785    5.5322    5.9159 H           1 MOL       0.0604
     33 H4         25.3184    3.2823    5.1880 H           1 MOL       0.0626
     34 H5         28.6662    0.8985    2.3337 H           1 MOL       0.0518
     35 H6         27.3897   -0.2686    2.0274 H           1 MOL       0.0518
     36 H7         26.8422   -1.7654    3.8195 H           1 MOL       0.2079
     37 H8         29.5516   -2.4348    4.0834 H           1 MOL       0.0244
     38 H9         30.1294   -1.3252    2.8294 H           1 MOL       0.0244
     39 H10        28.6636   -2.2793    2.5629 H           1 MOL       0.0244
     40 H11        28.8058   -1.2999    6.3155 H           1 MOL       0.2319
     41 H12        28.6100   -0.1046    8.5381 H           1 MOL       0.0781
     42 H13        32.0193   -0.1740    6.0978 H           1 MOL       0.0767
     43 H14        33.4085    0.2802    7.9924 H           1 MOL       0.0766
@<TRIPOS>BOND
     1     1     2  ar
     2     1     7  ar
     3     2     3  ar
     4     3     4   1
     5     3     5  ar
     6     5     6  ar
     7     6     7  ar
     8     7     8   1
     9     8     9   2
    10     8    10   2
    11     8    11   1
    12    11    12   1
    13    12    13   1
    14    12    14   1
    15    12    15   1
    16    15    16   2
    17    15    17  am
    18    17    18   1
    19    18    19  ar
    20    18    20  ar
    21    19    25  ar
    22    20    21  ar
    23    21    22  ar
    24    22    23   1
    25    22    25  ar
    26    23    24   3
    27    25    26   1
    28    26    27   1
    29    26    28   1
    30    26    29   1
    31     1    30   1
    32     2    31   1
    33     5    32   1
    34     6    33   1
    35    11    34   1
    36    11    35   1
    37    13    36   1
    38    14    37   1
    39    14    38   1
    40    14    39   1
    41    17    40   1
    42    19    41   1
    43    20    42   1
    44    21    43   1
@<TRIPOS>SUBSTRUCTURE
     1  MOL      1

