@<TRIPOS>MOLECULE
1z95_ligand_053
    43    44
SMALL
GAST_HUCK
****
This file was generated by PARSER (from files_GN.cpp)

@<TRIPOS>ATOM
      1 C16        27.5308    2.4883    6.7492 C.ar        1 MOL      -0.0388
      2 C17        28.8864    2.2100    6.4715 C.ar        1 MOL      -0.0264
      3 C18        29.6266    3.0744    5.6442 C.ar        1 MOL       0.1325
      4 F18        30.8780    2.8121    5.3729 F           1 MOL      -0.1834
      5 C19        29.0188    4.2367    5.1334 C.ar        1 MOL      -0.0264
      6 C20        27.6847    4.5407    5.4621 C.ar        1 MOL      -0.0388
      7 C15        26.9154    3.6435    6.2276 C.ar        1 MOL       0.0840
      8 S14        25.2271    3.9698    6.5546 S.o2        1 MOL      -0.0030
      9 O14        24.3582    2.6405    6.4303 O.2         1 MOL      -0.1699
     10 O15        25.1053    4.3396    8.0963 O.2         1 MOL      -0.1699
     11 C13        24.4305    5.2972    5.5889 C.3         1 MOL       0.1063
     12 C11        24.5435    5.2657    4.0107 C.3         1 MOL       0.1678
     13 O11        23.2437    5.5615    3.4765 O.3         1 MOL      -0.3823
     14 C12        25.4108    6.4451    3.4595 C.3         1 MOL      -0.0271
     15 C10        24.9637    3.9493    3.5031 C.2         1 MOL       0.2588
     16 O10        25.9100    3.8439    2.7156 O.2         1 MOL      -0.3300
     17 N9         24.3299    2.8517    3.8963 N.am        1 MOL      -0.2188
     18 C1         24.6792    1.5456    3.7147 C.ar        1 MOL       0.1074
     19 C2         25.7185    0.9166    4.4400 C.ar        1 MOL       0.0010
     20 C6         23.8397    0.7701    2.9026 C.ar        1 MOL      -0.0005
     21 C5         24.0316   -0.6198    2.7999 C.ar        1 MOL      -0.0119
     22 C4         25.0551   -1.2520    3.5431 C.ar        1 MOL       0.1068
     23 C8         25.1591   -2.5570    3.4272 C.1         1 MOL       0.1050
     24 N8         25.2648   -3.6997    3.3259 N.1         1 MOL      -0.3259
     25 C3         25.9147   -0.4904    4.3845 C.ar        1 MOL       0.0666
     26 C7         26.9672   -1.1454    5.2328 C.3         1 MOL       0.3787
     27 F7B        26.3824   -2.0475    6.0921 F           1 MOL      -0.2186
     28 F7C        27.8744   -1.8058    4.4369 F           1 MOL      -0.2186
     29 F7A        27.7071   -0.3061    6.0269 F           1 MOL      -0.2186
     30 H1         27.0064    1.8469    7.3425 H           1 MOL       0.0626
     31 H2         29.3205    1.3735    6.8636 H           1 MOL       0.0604
     32 H3         29.5421    4.8730    4.5342 H           1 MOL       0.0604
     33 H4         27.2953    5.4166    5.1325 H           1 MOL       0.0626
     34 H5         24.8132    6.2456    5.9808 H           1 MOL       0.0518
     35 H6         23.3783    5.2681    5.8854 H           1 MOL       0.0518
     36 H7         22.6461    4.8371    3.7560 H           1 MOL       0.2079
     37 H8         25.3589    6.4690    2.3629 H           1 MOL       0.0244
     38 H9         26.4594    6.3545    3.7605 H           1 MOL       0.0244
     39 H10        25.0254    7.4060    3.8320 H           1 MOL       0.0244
     40 H11        23.4934    2.9860    4.3793 H           1 MOL       0.2319
     41 H12        26.3045    1.4810    5.0477 H           1 MOL       0.0781
     42 H13        23.0884    1.2172    2.3694 H           1 MOL       0.0767
     43 H14        23.3977   -1.1485    2.2009 H           1 MOL       0.0766
@<TRIPOS>BOND
     1     1     2  ar
     2     1     7  ar
     3     2     3  ar
     4     3     4   1
     5     3     5  ar
     6     5     6  ar
     7     6     7  ar
     8     7     8   1
     9     8     9   2
    10     8    10   2
    11     8    11   1
    12    11    12   1
    13    12    13   1
    14    12    14   1
    15    12    15   1
    16    15    16   2
    17    15    17  am
    18    17    18   1
    19    18    19  ar
    20    18    20  ar
    21    19    25  ar
    22    20    21  ar
    23    21    22  ar
    24    22    23   1
    25    22    25  ar
    26    23    24   3
    27    25    26   1
    28    26    27   1
    29    26    28   1
    30    26    29   1
    31     1    30   1
    32     2    31   1
    33     5    32   1
    34     6    33   1
    35    11    34   1
    36    11    35   1
    37    13    36   1
    38    14    37   1
    39    14    38   1
    40    14    39   1
    41    17    40   1
    42    19    41   1
    43    20    42   1
    44    21    43   1
@<TRIPOS>SUBSTRUCTURE
     1  MOL      1

