@<TRIPOS>MOLECULE
1z95_ligand_005
    43    44
SMALL
GAST_HUCK
****
This file was generated by PARSER (from files_GN.cpp)

@<TRIPOS>ATOM
      1 C16        29.3294    3.9896    5.2595 C.ar        1 MOL      -0.0388
      2 C17        30.3966    3.1870    5.7124 C.ar        1 MOL      -0.0264
      3 C18        30.1546    2.1476    6.6276 C.ar        1 MOL       0.1325
      4 F18        31.1385    1.3976    7.0447 F           1 MOL      -0.1834
      5 C19        28.8455    1.9128    7.0883 C.ar        1 MOL      -0.0264
      6 C20        27.7737    2.6856    6.6070 C.ar        1 MOL      -0.0388
      7 C15        28.0085    3.7395    5.6926 C.ar        1 MOL       0.0840
      8 S14        26.7084    4.7423    5.0936 S.o2        1 MOL      -0.0030
      9 O14        27.0865    6.2537    5.4276 O.2         1 MOL      -0.1699
     10 O15        26.6761    4.6982    3.5022 O.2         1 MOL      -0.1699
     11 C13        25.0698    4.4197    5.8147 C.3         1 MOL       0.1063
     12 C11        24.1670    3.2826    5.1932 C.3         1 MOL       0.1678
     13 O11        23.3955    2.7107    6.2668 O.3         1 MOL      -0.3823
     14 C12        23.0785    3.8930    4.2552 C.3         1 MOL      -0.0271
     15 C10        24.9234    2.2201    4.5106 C.2         1 MOL       0.2588
     16 O10        24.9911    2.2316    3.2824 O.2         1 MOL      -0.3300
     17 N9         25.5545    1.2691    5.1997 N.am        1 MOL      -0.2188
     18 C1         26.4315    0.3295    4.7421 C.ar        1 MOL       0.1074
     19 C2         27.6902    0.6645    4.1967 C.ar        1 MOL       0.0010
     20 C6         26.1208   -1.0257    4.9652 C.ar        1 MOL      -0.0005
     21 C5         27.0237   -2.0370    4.6021 C.ar        1 MOL      -0.0119
     22 C4         28.2967   -1.7022    4.0913 C.ar        1 MOL       0.1068
     23 C8         29.1239   -2.6875    3.8645 C.1         1 MOL       0.1050
     24 N8         29.8682   -3.5424    3.6755 N.1         1 MOL      -0.3259
     25 C3         28.6580   -0.3314    3.9001 C.ar        1 MOL       0.0666
     26 C7         30.0425    0.0738    3.4890 C.3         1 MOL       0.3787
     27 F7B        30.9370   -0.3675    4.4322 F           1 MOL      -0.2186
     28 F7C        30.3732   -0.4685    2.2705 F           1 MOL      -0.2186
     29 F7A        30.2610    1.4268    3.3811 F           1 MOL      -0.2186
     30 H1         29.5184    4.7487    4.6062 H           1 MOL       0.0626
     31 H2         31.3473    3.3671    5.3780 H           1 MOL       0.0604
     32 H3         28.6702    1.1726    7.7704 H           1 MOL       0.0604
     33 H4         26.8320    2.4820    6.9441 H           1 MOL       0.0626
     34 H5         24.5288    5.3715    5.8010 H           1 MOL       0.0518
     35 H6         25.2450    4.2079    6.8722 H           1 MOL       0.0518
     36 H7         24.0438    2.3627    6.9163 H           1 MOL       0.2079
     37 H8         22.4570    3.1075    3.8158 H           1 MOL       0.0244
     38 H9         23.5429    4.4644    3.4498 H           1 MOL       0.0244
     39 H10        22.4264    4.5712    4.8134 H           1 MOL       0.0244
     40 H11        25.3740    1.2303    6.1509 H           1 MOL       0.2319
     41 H12        27.9214    1.6543    4.0961 H           1 MOL       0.0781
     42 H13        25.2348   -1.2855    5.4090 H           1 MOL       0.0767
     43 H14        26.7548   -3.0134    4.7706 H           1 MOL       0.0766
@<TRIPOS>BOND
     1     1     2  ar
     2     1     7  ar
     3     2     3  ar
     4     3     4   1
     5     3     5  ar
     6     5     6  ar
     7     6     7  ar
     8     7     8   1
     9     8     9   2
    10     8    10   2
    11     8    11   1
    12    11    12   1
    13    12    13   1
    14    12    14   1
    15    12    15   1
    16    15    16   2
    17    15    17  am
    18    17    18   1
    19    18    19  ar
    20    18    20  ar
    21    19    25  ar
    22    20    21  ar
    23    21    22  ar
    24    22    23   1
    25    22    25  ar
    26    23    24   3
    27    25    26   1
    28    26    27   1
    29    26    28   1
    30    26    29   1
    31     1    30   1
    32     2    31   1
    33     5    32   1
    34     6    33   1
    35    11    34   1
    36    11    35   1
    37    13    36   1
    38    14    37   1
    39    14    38   1
    40    14    39   1
    41    17    40   1
    42    19    41   1
    43    20    42   1
    44    21    43   1
@<TRIPOS>SUBSTRUCTURE
     1  MOL      1

