@<TRIPOS>MOLECULE
1z95_ligand_057
    43    44
SMALL
GAST_HUCK
****
This file was generated by PARSER (from files_GN.cpp)

@<TRIPOS>ATOM
      1 C16        31.0123    0.5127    6.6210 C.ar        1 MOL      -0.0388
      2 C17        30.5202    1.0497    5.4157 C.ar        1 MOL      -0.0264
      3 C18        29.8229    2.2722    5.4172 C.ar        1 MOL       0.1325
      4 F18        29.3277    2.7423    4.3085 F           1 MOL      -0.1834
      5 C19        29.6564    2.9816    6.6235 C.ar        1 MOL      -0.0264
      6 C20        30.1627    2.4557    7.8232 C.ar        1 MOL      -0.0388
      7 C15        30.8206    1.2045    7.8379 C.ar        1 MOL       0.0840
      8 S14        31.3918    0.4937    9.3265 S.o2        1 MOL      -0.0030
      9 O14        31.0456   -1.0569    9.3714 O.2         1 MOL      -0.1699
     10 O15        32.9776    0.5747    9.2735 O.2         1 MOL      -0.1699
     11 C13        30.8266    1.3201   10.8413 C.3         1 MOL       0.1063
     12 C11        29.3333    1.1384   11.3104 C.3         1 MOL       0.1678
     13 O11        28.9155    2.4262   11.7780 O.3         1 MOL      -0.3823
     14 C12        28.2890    0.7673   10.2187 C.3         1 MOL      -0.0271
     15 C10        29.2462    0.1485   12.3906 C.2         1 MOL       0.2588
     16 O10        29.5836   -1.0069   12.1618 O.2         1 MOL      -0.3300
     17 N9         28.7197    0.4803   13.5658 N.am        1 MOL      -0.2188
     18 C1         28.5196   -0.3413   14.6247 C.ar        1 MOL       0.1074
     19 C2         27.2193   -0.4760   15.1425 C.ar        1 MOL       0.0010
     20 C6         29.5920   -0.9850   15.2659 C.ar        1 MOL      -0.0005
     21 C5         29.3635   -1.7386   16.4220 C.ar        1 MOL      -0.0119
     22 C4         28.0581   -1.9022   16.9336 C.ar        1 MOL       0.1068
     23 C8         27.9458   -2.6234   18.0210 C.1         1 MOL       0.1050
     24 N8         27.8619   -3.2626   18.9730 N.1         1 MOL      -0.3259
     25 C3         26.9464   -1.2937   16.2707 C.ar        1 MOL       0.0666
     26 C7         25.5268   -1.4969   16.7179 C.3         1 MOL       0.3787
     27 F7B        25.1662   -2.8175   16.5997 F           1 MOL      -0.2186
     28 F7C        25.3728   -1.1188   18.0318 F           1 MOL      -0.2186
     29 F7A        24.5719   -0.8114   16.0009 F           1 MOL      -0.2186
     30 H1         31.4965   -0.3869    6.6011 H           1 MOL       0.0626
     31 H2         30.6649    0.5416    4.5390 H           1 MOL       0.0604
     32 H3         29.1547    3.8745    6.6379 H           1 MOL       0.0604
     33 H4         30.0331    2.9902    8.6816 H           1 MOL       0.0626
     34 H5         31.0463    2.3811   10.7111 H           1 MOL       0.0518
     35 H6         31.5020    0.9794   11.6300 H           1 MOL       0.0518
     36 H7         27.9665    2.3387   12.0061 H           1 MOL       0.2079
     37 H8         27.3117    0.6115   10.6879 H           1 MOL       0.0244
     38 H9         28.5777   -0.1542    9.7067 H           1 MOL       0.0244
     39 H10        28.1808    1.5682    9.4871 H           1 MOL       0.0244
     40 H11        28.3794    1.3836   13.6566 H           1 MOL       0.2319
     41 H12        26.4613    0.0068   14.6602 H           1 MOL       0.0781
     42 H13        30.5453   -0.8812   14.9129 H           1 MOL       0.0767
     43 H14        30.1688   -2.1572   16.8885 H           1 MOL       0.0766
@<TRIPOS>BOND
     1     1     2  ar
     2     1     7  ar
     3     2     3  ar
     4     3     4   1
     5     3     5  ar
     6     5     6  ar
     7     6     7  ar
     8     7     8   1
     9     8     9   2
    10     8    10   2
    11     8    11   1
    12    11    12   1
    13    12    13   1
    14    12    14   1
    15    12    15   1
    16    15    16   2
    17    15    17  am
    18    17    18   1
    19    18    19  ar
    20    18    20  ar
    21    19    25  ar
    22    20    21  ar
    23    21    22  ar
    24    22    23   1
    25    22    25  ar
    26    23    24   3
    27    25    26   1
    28    26    27   1
    29    26    28   1
    30    26    29   1
    31     1    30   1
    32     2    31   1
    33     5    32   1
    34     6    33   1
    35    11    34   1
    36    11    35   1
    37    13    36   1
    38    14    37   1
    39    14    38   1
    40    14    39   1
    41    17    40   1
    42    19    41   1
    43    20    42   1
    44    21    43   1
@<TRIPOS>SUBSTRUCTURE
     1  MOL      1

