@<TRIPOS>MOLECULE
1z95_ligand_025
    43    44
SMALL
GAST_HUCK
****
This file was generated by PARSER (from files_GN.cpp)

@<TRIPOS>ATOM
      1 C16        27.6327    4.5221    5.4422 C.ar        1 MOL      -0.0388
      2 C17        29.0062    4.4233    5.1785 C.ar        1 MOL      -0.0264
      3 C18        29.7121    3.2563    5.5268 C.ar        1 MOL       0.1325
      4 F18        30.9935    3.1678    5.2844 F           1 MOL      -0.1834
      5 C19        29.0292    2.1787    6.1240 C.ar        1 MOL      -0.0264
      6 C20        27.6419    2.2681    6.3515 C.ar        1 MOL      -0.0388
      7 C15        26.9244    3.4390    6.0080 C.ar        1 MOL       0.0840
      8 S14        25.2075    3.5407    6.2903 S.o2        1 MOL      -0.0030
      9 O14        24.4382    2.1957    5.9168 O.2         1 MOL      -0.1699
     10 O15        25.0767    3.6535    7.8740 O.2         1 MOL      -0.1699
     11 C13        24.3945    4.9867    5.5617 C.3         1 MOL       0.1063
     12 C11        24.4805    5.2069    3.9990 C.3         1 MOL       0.1678
     13 O11        23.2303    4.7761    3.4188 O.3         1 MOL      -0.3823
     14 C12        24.5245    6.7531    3.7322 C.3         1 MOL      -0.0271
     15 C10        25.5802    4.4817    3.3443 C.2         1 MOL       0.2588
     16 O10        26.5282    5.0987    2.8779 O.2         1 MOL      -0.3300
     17 N9         25.5909    3.1428    3.3961 N.am        1 MOL      -0.2188
     18 C1         26.5917    2.2240    3.2998 C.ar        1 MOL       0.1074
     19 C2         26.2189    0.8926    3.6338 C.ar        1 MOL       0.0010
     20 C6         27.9619    2.4725    3.0867 C.ar        1 MOL      -0.0005
     21 C5         28.9175    1.4440    3.1787 C.ar        1 MOL      -0.0119
     22 C4         28.5285    0.1246    3.4967 C.ar        1 MOL       0.1068
     23 C8         29.4600   -0.7768    3.5573 C.1         1 MOL       0.1050
     24 N8         30.3050   -1.5771    3.6146 N.1         1 MOL      -0.3259
     25 C3         27.1628   -0.1591    3.7658 C.ar        1 MOL       0.0666
     26 C7         26.7140   -1.5090    4.2513 C.3         1 MOL       0.3787
     27 F7B        27.1250   -2.5018    3.3961 F           1 MOL      -0.2186
     28 F7C        27.2530   -1.7440    5.4958 F           1 MOL      -0.2186
     29 F7A        25.3550   -1.6677    4.3917 F           1 MOL      -0.2186
     30 H1         27.1564    5.3863    5.1955 H           1 MOL       0.0626
     31 H2         29.4824    5.1979    4.7206 H           1 MOL       0.0604
     32 H3         29.5332    1.3237    6.3754 H           1 MOL       0.0604
     33 H4         27.1557    1.4621    6.7511 H           1 MOL       0.0626
     34 H5         24.8100    5.8547    6.0881 H           1 MOL       0.0518
     35 H6         23.3414    4.9435    5.8547 H           1 MOL       0.0518
     36 H7         22.9603    3.9727    3.9156 H           1 MOL       0.2079
     37 H8         24.5117    6.9701    2.6645 H           1 MOL       0.0244
     38 H9         25.4287    7.1914    4.1670 H           1 MOL       0.0244
     39 H10        23.6622    7.2495    4.1887 H           1 MOL       0.0244
     40 H11        24.7585    2.7733    3.7139 H           1 MOL       0.2319
     41 H12        25.2361    0.7151    3.8372 H           1 MOL       0.0781
     42 H13        28.3112    3.4145    2.9044 H           1 MOL       0.0767
     43 H14        29.9072    1.6725    3.0520 H           1 MOL       0.0766
@<TRIPOS>BOND
     1     1     2  ar
     2     1     7  ar
     3     2     3  ar
     4     3     4   1
     5     3     5  ar
     6     5     6  ar
     7     6     7  ar
     8     7     8   1
     9     8     9   2
    10     8    10   2
    11     8    11   1
    12    11    12   1
    13    12    13   1
    14    12    14   1
    15    12    15   1
    16    15    16   2
    17    15    17  am
    18    17    18   1
    19    18    19  ar
    20    18    20  ar
    21    19    25  ar
    22    20    21  ar
    23    21    22  ar
    24    22    23   1
    25    22    25  ar
    26    23    24   3
    27    25    26   1
    28    26    27   1
    29    26    28   1
    30    26    29   1
    31     1    30   1
    32     2    31   1
    33     5    32   1
    34     6    33   1
    35    11    34   1
    36    11    35   1
    37    13    36   1
    38    14    37   1
    39    14    38   1
    40    14    39   1
    41    17    40   1
    42    19    41   1
    43    20    42   1
    44    21    43   1
@<TRIPOS>SUBSTRUCTURE
     1  MOL      1

