@<TRIPOS>MOLECULE
1z95_ligand_032
    43    44
SMALL
GAST_HUCK
****
This file was generated by PARSER (from files_GN.cpp)

@<TRIPOS>ATOM
      1 C16        28.5308    3.4950    3.5875 C.ar        1 MOL      -0.0388
      2 C17        29.0897    2.2031    3.5735 C.ar        1 MOL      -0.0264
      3 C18        28.3158    1.1124    3.1330 C.ar        1 MOL       0.1325
      4 F18        28.8039   -0.0943    3.1909 F           1 MOL      -0.1834
      5 C19        27.0084    1.3251    2.6602 C.ar        1 MOL      -0.0264
      6 C20        26.4580    2.6187    2.6661 C.ar        1 MOL      -0.0388
      7 C15        27.1918    3.7019    3.1946 C.ar        1 MOL       0.0840
      8 S14        26.4209    5.2467    3.4672 S.o2        1 MOL      -0.0030
      9 O14        27.4170    6.1953    4.2712 O.2         1 MOL      -0.1699
     10 O15        26.2349    6.0087    2.0831 O.2         1 MOL      -0.1699
     11 C13        24.8480    5.2696    4.3867 C.3         1 MOL       0.1063
     12 C11        24.3426    4.0218    5.2246 C.3         1 MOL       0.1678
     13 O11        23.7744    4.4939    6.4523 O.3         1 MOL      -0.3823
     14 C12        23.1211    3.3539    4.5047 C.3         1 MOL      -0.0271
     15 C10        25.3954    3.0657    5.6081 C.2         1 MOL       0.2588
     16 O10        25.1833    1.8683    5.4988 O.2         1 MOL      -0.3300
     17 N9         26.5768    3.5077    6.0459 N.am        1 MOL      -0.2188
     18 C1         27.7472    2.8235    6.2855 C.ar        1 MOL       0.1074
     19 C2         27.8958    1.4169    6.3119 C.ar        1 MOL       0.0010
     20 C6         28.9097    3.5974    6.4869 C.ar        1 MOL      -0.0005
     21 C5         30.1680    2.9974    6.6659 C.ar        1 MOL      -0.0119
     22 C4         30.3001    1.5939    6.6660 C.ar        1 MOL       0.1068
     23 C8         31.5026    1.1018    6.8325 C.1         1 MOL       0.1050
     24 N8         32.5543    0.6531    6.9732 N.1         1 MOL      -0.3259
     25 C3         29.1509    0.7722    6.4745 C.ar        1 MOL       0.0666
     26 C7         29.2332   -0.7236    6.4363 C.3         1 MOL       0.3787
     27 F7B        30.1365   -1.1314    5.4843 F           1 MOL      -0.2186
     28 F7C        29.6282   -1.1889    7.6665 F           1 MOL      -0.2186
     29 F7A        28.0531   -1.3547    6.1191 F           1 MOL      -0.2186
     30 H1         29.0944    4.2734    3.9384 H           1 MOL       0.0626
     31 H2         30.0384    2.0562    3.9192 H           1 MOL       0.0604
     32 H3         26.4416    0.5371    2.3432 H           1 MOL       0.0604
     33 H4         25.5035    2.7560    2.3303 H           1 MOL       0.0626
     34 H5         24.0814    5.5569    3.6602 H           1 MOL       0.0518
     35 H6         24.9344    6.1229    5.0657 H           1 MOL       0.0518
     36 H7         24.4811    4.4099    7.1237 H           1 MOL       0.2079
     37 H8         22.7238    2.5209    5.0889 H           1 MOL       0.0244
     38 H9         23.4097    2.9782    3.5199 H           1 MOL       0.0244
     39 H10        22.3129    4.0785    4.3704 H           1 MOL       0.0244
     40 H11        26.6628    4.4715    6.0931 H           1 MOL       0.2319
     41 H12        27.0635    0.8409    6.2147 H           1 MOL       0.0781
     42 H13        28.8550    4.6201    6.4778 H           1 MOL       0.0767
     43 H14        30.9906    3.5982    6.7749 H           1 MOL       0.0766
@<TRIPOS>BOND
     1     1     2  ar
     2     1     7  ar
     3     2     3  ar
     4     3     4   1
     5     3     5  ar
     6     5     6  ar
     7     6     7  ar
     8     7     8   1
     9     8     9   2
    10     8    10   2
    11     8    11   1
    12    11    12   1
    13    12    13   1
    14    12    14   1
    15    12    15   1
    16    15    16   2
    17    15    17  am
    18    17    18   1
    19    18    19  ar
    20    18    20  ar
    21    19    25  ar
    22    20    21  ar
    23    21    22  ar
    24    22    23   1
    25    22    25  ar
    26    23    24   3
    27    25    26   1
    28    26    27   1
    29    26    28   1
    30    26    29   1
    31     1    30   1
    32     2    31   1
    33     5    32   1
    34     6    33   1
    35    11    34   1
    36    11    35   1
    37    13    36   1
    38    14    37   1
    39    14    38   1
    40    14    39   1
    41    17    40   1
    42    19    41   1
    43    20    42   1
    44    21    43   1
@<TRIPOS>SUBSTRUCTURE
     1  MOL      1

