@<TRIPOS>MOLECULE
1z95_ligand_045
    43    44
SMALL
GAST_HUCK
****
This file was generated by PARSER (from files_GN.cpp)

@<TRIPOS>ATOM
      1 C16        27.0592    2.7442    6.2565 C.ar        1 MOL      -0.0388
      2 C17        28.1576    2.1637    6.9199 C.ar        1 MOL      -0.0264
      3 C18        28.1340    2.0166    8.3266 C.ar        1 MOL       0.1325
      4 F18        29.1457    1.4649    8.9429 F           1 MOL      -0.1834
      5 C19        27.0077    2.4585    9.0555 C.ar        1 MOL      -0.0264
      6 C20        25.9113    3.0226    8.3786 C.ar        1 MOL      -0.0388
      7 C15        25.9265    3.1739    6.9705 C.ar        1 MOL       0.0840
      8 S14        24.5780    3.8849    6.1107 S.o2        1 MOL      -0.0030
      9 O14        24.0630    2.9299    4.9555 O.2         1 MOL      -0.1699
     10 O15        23.3089    4.0680    7.0620 O.2         1 MOL      -0.1699
     11 C13        24.9698    5.5458    5.4608 C.3         1 MOL       0.1063
     12 C11        25.2549    5.6634    3.9269 C.3         1 MOL       0.1678
     13 O11        23.9952    5.6529    3.2349 O.3         1 MOL      -0.3823
     14 C12        25.8365    7.0788    3.6582 C.3         1 MOL      -0.0271
     15 C10        26.1496    4.6001    3.4451 C.2         1 MOL       0.2588
     16 O10        27.3561    4.7749    3.5779 O.2         1 MOL      -0.3300
     17 N9         25.6667    3.3929    3.1710 N.am        1 MOL      -0.2188
     18 C1         26.3066    2.1734    3.1377 C.ar        1 MOL       0.1074
     19 C2         27.7050    1.9484    3.0668 C.ar        1 MOL       0.0010
     20 C6         25.4668    1.0627    3.3352 C.ar        1 MOL      -0.0005
     21 C5         25.9907   -0.2186    3.5498 C.ar        1 MOL      -0.0119
     22 C4         27.3867   -0.4152    3.5435 C.ar        1 MOL       0.1068
     23 C8         27.8219   -1.6334    3.7852 C.1         1 MOL       0.1050
     24 N8         28.1898   -2.7028    4.0100 N.1         1 MOL      -0.3259
     25 C3         28.2801    0.6688    3.3120 C.ar        1 MOL       0.0666
     26 C7         29.7629    0.4893    3.4072 C.3         1 MOL       0.3787
     27 F7B        30.0996   -0.0284    4.6239 F           1 MOL      -0.2186
     28 F7C        30.2064   -0.3646    2.4214 F           1 MOL      -0.2186
     29 F7A        30.5056    1.6423    3.2869 F           1 MOL      -0.2186
     30 H1         27.1049    2.8374    5.2433 H           1 MOL       0.0626
     31 H2         28.9814    1.8676    6.3895 H           1 MOL       0.0604
     32 H3         26.9913    2.3566   10.0743 H           1 MOL       0.0604
     33 H4         25.0991    3.3463    8.9253 H           1 MOL       0.0626
     34 H5         25.8136    5.9423    6.0287 H           1 MOL       0.0518
     35 H6         24.0975    6.1755    5.7042 H           1 MOL       0.0518
     36 H7         23.3759    5.0692    3.7334 H           1 MOL       0.2079
     37 H8         26.0645    7.2201    2.6070 H           1 MOL       0.0244
     38 H9         26.7500    7.2367    4.2333 H           1 MOL       0.0244
     39 H10        25.1212    7.8633    3.9571 H           1 MOL       0.0244
     40 H11        24.6971    3.3219    3.2198 H           1 MOL       0.2319
     41 H12        28.3097    2.7576    2.8598 H           1 MOL       0.0781
     42 H13        24.4559    1.1715    3.3861 H           1 MOL       0.0767
     43 H14        25.3526   -0.9969    3.7385 H           1 MOL       0.0766
@<TRIPOS>BOND
     1     1     2  ar
     2     1     7  ar
     3     2     3  ar
     4     3     4   1
     5     3     5  ar
     6     5     6  ar
     7     6     7  ar
     8     7     8   1
     9     8     9   2
    10     8    10   2
    11     8    11   1
    12    11    12   1
    13    12    13   1
    14    12    14   1
    15    12    15   1
    16    15    16   2
    17    15    17  am
    18    17    18   1
    19    18    19  ar
    20    18    20  ar
    21    19    25  ar
    22    20    21  ar
    23    21    22  ar
    24    22    23   1
    25    22    25  ar
    26    23    24   3
    27    25    26   1
    28    26    27   1
    29    26    28   1
    30    26    29   1
    31     1    30   1
    32     2    31   1
    33     5    32   1
    34     6    33   1
    35    11    34   1
    36    11    35   1
    37    13    36   1
    38    14    37   1
    39    14    38   1
    40    14    39   1
    41    17    40   1
    42    19    41   1
    43    20    42   1
    44    21    43   1
@<TRIPOS>SUBSTRUCTURE
     1  MOL      1

