@<TRIPOS>MOLECULE
1z95_ligand_016
    43    44
SMALL
GAST_HUCK
****
This file was generated by PARSER (from files_GN.cpp)

@<TRIPOS>ATOM
      1 C16        29.0923   -1.4470    9.3738 C.ar        1 MOL      -0.0388
      2 C17        28.7110   -2.7791    9.6192 C.ar        1 MOL      -0.0264
      3 C18        29.5172   -3.6009   10.4262 C.ar        1 MOL       0.1325
      4 F18        29.1860   -4.8459   10.6292 F           1 MOL      -0.1834
      5 C19        30.6805   -3.0739   11.0145 C.ar        1 MOL      -0.0264
      6 C20        31.0332   -1.7271   10.8069 C.ar        1 MOL      -0.0388
      7 C15        30.2612   -0.9092    9.9540 C.ar        1 MOL       0.0840
      8 S14        30.7674    0.7351    9.6398 S.o2        1 MOL      -0.0030
      9 O14        30.6531    1.5113   11.0224 O.2         1 MOL      -0.1699
     10 O15        32.3172    0.7569    9.2789 O.2         1 MOL      -0.1699
     11 C13        29.8114    1.6673    8.4060 C.3         1 MOL       0.1063
     12 C11        30.1292    1.4354    6.8829 C.3         1 MOL       0.1678
     13 O11        31.3921    2.0415    6.5737 O.3         1 MOL      -0.3823
     14 C12        30.3207   -0.0724    6.4998 C.3         1 MOL      -0.0271
     15 C10        29.0809    2.0917    6.0788 C.2         1 MOL       0.2588
     16 O10        28.4249    1.4359    5.2740 O.2         1 MOL      -0.3300
     17 N9         28.8031    3.3839    6.2421 N.am        1 MOL      -0.2188
     18 C1         27.7677    4.0908    5.6943 C.ar        1 MOL       0.1074
     19 C2         26.4267    3.6470    5.7295 C.ar        1 MOL       0.0010
     20 C6         28.0492    5.3496    5.1365 C.ar        1 MOL      -0.0005
     21 C5         27.0248    6.1217    4.5650 C.ar        1 MOL      -0.0119
     22 C4         25.6903    5.6538    4.5592 C.ar        1 MOL       0.1068
     23 C8         24.7974    6.4042    3.9742 C.1         1 MOL       0.1050
     24 N8         24.0129    7.0604    3.4536 N.1         1 MOL      -0.3259
     25 C3         25.3663    4.4064    5.1750 C.ar        1 MOL       0.0666
     26 C7         23.9546    3.8975    5.2494 C.3         1 MOL       0.3787
     27 F7B        23.1596    4.8079    5.9000 F           1 MOL      -0.2186
     28 F7C        23.4654    3.6979    3.9848 F           1 MOL      -0.2186
     29 F7A        23.7895    2.7087    5.9202 F           1 MOL      -0.2186
     30 H1         28.5065   -0.8792    8.7628 H           1 MOL       0.0626
     31 H2         27.8619   -3.1529    9.1871 H           1 MOL       0.0604
     32 H3         31.2714   -3.6693   11.5953 H           1 MOL       0.0604
     33 H4         31.8617   -1.3480   11.2730 H           1 MOL       0.0626
     34 H5         29.9822    2.7245    8.6284 H           1 MOL       0.0518
     35 H6         28.7567    1.4738    8.6033 H           1 MOL       0.0518
     36 H7         31.3305    2.9764    6.8578 H           1 MOL       0.2079
     37 H8         30.5557   -0.1610    5.4360 H           1 MOL       0.0244
     38 H9         29.4164   -0.6493    6.7018 H           1 MOL       0.0244
     39 H10        31.1483   -0.5266    7.0494 H           1 MOL       0.0244
     40 H11        29.4256    3.8999    6.7843 H           1 MOL       0.2319
     41 H12        26.2260    2.7589    6.1990 H           1 MOL       0.0781
     42 H13        29.0083    5.7035    5.1237 H           1 MOL       0.0767
     43 H14        27.2723    7.0257    4.1499 H           1 MOL       0.0766
@<TRIPOS>BOND
     1     1     2  ar
     2     1     7  ar
     3     2     3  ar
     4     3     4   1
     5     3     5  ar
     6     5     6  ar
     7     6     7  ar
     8     7     8   1
     9     8     9   2
    10     8    10   2
    11     8    11   1
    12    11    12   1
    13    12    13   1
    14    12    14   1
    15    12    15   1
    16    15    16   2
    17    15    17  am
    18    17    18   1
    19    18    19  ar
    20    18    20  ar
    21    19    25  ar
    22    20    21  ar
    23    21    22  ar
    24    22    23   1
    25    22    25  ar
    26    23    24   3
    27    25    26   1
    28    26    27   1
    29    26    28   1
    30    26    29   1
    31     1    30   1
    32     2    31   1
    33     5    32   1
    34     6    33   1
    35    11    34   1
    36    11    35   1
    37    13    36   1
    38    14    37   1
    39    14    38   1
    40    14    39   1
    41    17    40   1
    42    19    41   1
    43    20    42   1
    44    21    43   1
@<TRIPOS>SUBSTRUCTURE
     1  MOL      1

