@<TRIPOS>MOLECULE
1z95_ligand_003
    43    44
SMALL
GAST_HUCK
****
This file was generated by PARSER (from files_GN.cpp)

@<TRIPOS>ATOM
      1 C16        27.2341   -0.2179    2.7780 C.ar        1 MOL      -0.0388
      2 C17        28.0957   -1.3016    3.0282 C.ar        1 MOL      -0.0264
      3 C18        27.8508   -2.1610    4.1153 C.ar        1 MOL       0.1325
      4 F18        28.6432   -3.1719    4.3375 F           1 MOL      -0.1834
      5 C19        26.7353   -1.9382    4.9427 C.ar        1 MOL      -0.0264
      6 C20        25.8653   -0.8670    4.6779 C.ar        1 MOL      -0.0388
      7 C15        26.1128    0.0127    3.6024 C.ar        1 MOL       0.0840
      8 S14        25.0032    1.3155    3.2556 S.o2        1 MOL      -0.0030
      9 O14        25.5788    2.3152    2.1587 O.2         1 MOL      -0.1699
     10 O15        23.7199    0.6510    2.5960 O.2         1 MOL      -0.1699
     11 C13        24.4676    2.1979    4.7515 C.3         1 MOL       0.1063
     12 C11        25.2859    3.4568    5.1778 C.3         1 MOL       0.1678
     13 O11        24.8845    4.5323    4.3141 O.3         1 MOL      -0.3823
     14 C12        24.8496    3.9113    6.6021 C.3         1 MOL      -0.0271
     15 C10        26.7446    3.2816    5.0925 C.2         1 MOL       0.2588
     16 O10        27.3077    3.7321    4.1104 O.2         1 MOL      -0.3300
     17 N9         27.4162    2.5528    5.9893 N.am        1 MOL      -0.2188
     18 C1         28.7790    2.3593    6.0926 C.ar        1 MOL       0.1074
     19 C2         29.2280    1.2617    6.8633 C.ar        1 MOL       0.0010
     20 C6         29.7585    3.2117    5.5359 C.ar        1 MOL      -0.0005
     21 C5         31.1266    2.9312    5.6565 C.ar        1 MOL      -0.0119
     22 C4         31.5580    1.8027    6.3750 C.ar        1 MOL       0.1068
     23 C8         32.8494    1.5896    6.3936 C.1         1 MOL       0.1050
     24 N8         33.9804    1.4007    6.3911 N.1         1 MOL      -0.3259
     25 C3         30.6090    0.9645    7.0287 C.ar        1 MOL       0.0666
     26 C7         31.0509   -0.1945    7.8696 C.3         1 MOL       0.3787
     27 F7B        31.7418   -1.0890    7.0924 F           1 MOL      -0.2186
     28 F7C        31.8788    0.2396    8.8760 F           1 MOL      -0.2186
     29 F7A        30.0403   -0.8931    8.4831 F           1 MOL      -0.2186
     30 H1         27.4221    0.3862    1.9778 H           1 MOL       0.0626
     31 H2         28.8931   -1.4695    2.4120 H           1 MOL       0.0604
     32 H3         26.5379   -2.5597    5.7289 H           1 MOL       0.0604
     33 H4         25.0411   -0.7520    5.2693 H           1 MOL       0.0626
     34 H5         24.4612    1.4859    5.5732 H           1 MOL       0.0518
     35 H6         23.4276    2.4958    4.5933 H           1 MOL       0.0518
     36 H7         25.1765    4.2867    3.4063 H           1 MOL       0.2079
     37 H8         25.3747    4.8212    6.8904 H           1 MOL       0.0244
     38 H9         25.0686    3.1406    7.3405 H           1 MOL       0.0244
     39 H10        23.7746    4.1126    6.6404 H           1 MOL       0.0244
     40 H11        26.8793    2.0866    6.6522 H           1 MOL       0.2319
     41 H12        28.5232    0.6653    7.3002 H           1 MOL       0.0781
     42 H13        29.4981    4.0677    5.0396 H           1 MOL       0.0767
     43 H14        31.7935    3.5656    5.2208 H           1 MOL       0.0766
@<TRIPOS>BOND
     1     1     2  ar
     2     1     7  ar
     3     2     3  ar
     4     3     4   1
     5     3     5  ar
     6     5     6  ar
     7     6     7  ar
     8     7     8   1
     9     8     9   2
    10     8    10   2
    11     8    11   1
    12    11    12   1
    13    12    13   1
    14    12    14   1
    15    12    15   1
    16    15    16   2
    17    15    17  am
    18    17    18   1
    19    18    19  ar
    20    18    20  ar
    21    19    25  ar
    22    20    21  ar
    23    21    22  ar
    24    22    23   1
    25    22    25  ar
    26    23    24   3
    27    25    26   1
    28    26    27   1
    29    26    28   1
    30    26    29   1
    31     1    30   1
    32     2    31   1
    33     5    32   1
    34     6    33   1
    35    11    34   1
    36    11    35   1
    37    13    36   1
    38    14    37   1
    39    14    38   1
    40    14    39   1
    41    17    40   1
    42    19    41   1
    43    20    42   1
    44    21    43   1
@<TRIPOS>SUBSTRUCTURE
     1  MOL      1

