@<TRIPOS>MOLECULE
1z95_ligand_040
    43    44
SMALL
GAST_HUCK
****
This file was generated by PARSER (from files_GN.cpp)

@<TRIPOS>ATOM
      1 C16        26.5345    3.1424    3.1363 C.ar        1 MOL      -0.0388
      2 C17        27.8409    3.6587    3.1007 C.ar        1 MOL      -0.0264
      3 C18        28.0611    5.0409    3.2540 C.ar        1 MOL       0.1325
      4 F18        29.2727    5.5120    3.2693 F           1 MOL      -0.1834
      5 C19        26.9680    5.9083    3.4444 C.ar        1 MOL      -0.0264
      6 C20        25.6638    5.3890    3.5065 C.ar        1 MOL      -0.0388
      7 C15        25.4410    4.0012    3.3839 C.ar        1 MOL       0.0840
      8 S14        23.8568    3.3429    3.7165 S.o2        1 MOL      -0.0030
      9 O14        22.7298    4.3423    3.2120 O.2         1 MOL      -0.1699
     10 O15        23.6353    1.9742    2.9385 O.2         1 MOL      -0.1699
     11 C13        23.5401    3.0381    5.4770 C.3         1 MOL       0.1063
     12 C11        24.6190    3.5486    6.4869 C.3         1 MOL       0.1678
     13 O11        24.6153    4.9842    6.3881 O.3         1 MOL      -0.3823
     14 C12        24.1668    3.2456    7.9369 C.3         1 MOL      -0.0271
     15 C10        25.9469    2.9579    6.2960 C.2         1 MOL       0.2588
     16 O10        26.9277    3.6854    6.2933 O.2         1 MOL      -0.3300
     17 N9         26.0894    1.6428    6.1072 N.am        1 MOL      -0.2188
     18 C1         27.2719    0.9723    5.9575 C.ar        1 MOL       0.1074
     19 C2         27.4153    0.0911    4.8615 C.ar        1 MOL       0.0010
     20 C6         28.3334    1.1188    6.8656 C.ar        1 MOL      -0.0005
     21 C5         29.5320    0.4169    6.6776 C.ar        1 MOL      -0.0119
     22 C4         29.6982   -0.4219    5.5497 C.ar        1 MOL       0.1068
     23 C8         30.8406   -1.0515    5.4404 C.1         1 MOL       0.1050
     24 N8         31.8396   -1.6064    5.3645 N.1         1 MOL      -0.3259
     25 C3         28.6424   -0.5752    4.6043 C.ar        1 MOL       0.0666
     26 C7         28.8118   -1.3847    3.3507 C.3         1 MOL       0.3787
     27 F7B        29.8415   -0.8715    2.5996 F           1 MOL      -0.2186
     28 F7C        29.1020   -2.6895    3.6612 F           1 MOL      -0.2186
     29 F7A        27.7205   -1.4184    2.5166 F           1 MOL      -0.2186
     30 H1         26.3968    2.1401    3.0302 H           1 MOL       0.0626
     31 H2         28.6358    3.0245    2.9880 H           1 MOL       0.0604
     32 H3         27.1214    6.9094    3.5833 H           1 MOL       0.0604
     33 H4         24.8852    6.0282    3.6822 H           1 MOL       0.0626
     34 H5         23.3914    1.9607    5.6075 H           1 MOL       0.0518
     35 H6         22.5845    3.5190    5.7107 H           1 MOL       0.0518
     36 H7         25.5189    5.2778    6.1652 H           1 MOL       0.2079
     37 H8         24.9165    3.5641    8.6660 H           1 MOL       0.0244
     38 H9         23.9793    2.1802    8.0807 H           1 MOL       0.0244
     39 H10        23.2428    3.7744    8.1568 H           1 MOL       0.0244
     40 H11        25.2861    1.1169    6.0017 H           1 MOL       0.2319
     41 H12        26.6259   -0.0157    4.2317 H           1 MOL       0.0781
     42 H13        28.2394    1.7246    7.6860 H           1 MOL       0.0767
     43 H14        30.2848    0.5310    7.3657 H           1 MOL       0.0766
@<TRIPOS>BOND
     1     1     2  ar
     2     1     7  ar
     3     2     3  ar
     4     3     4   1
     5     3     5  ar
     6     5     6  ar
     7     6     7  ar
     8     7     8   1
     9     8     9   2
    10     8    10   2
    11     8    11   1
    12    11    12   1
    13    12    13   1
    14    12    14   1
    15    12    15   1
    16    15    16   2
    17    15    17  am
    18    17    18   1
    19    18    19  ar
    20    18    20  ar
    21    19    25  ar
    22    20    21  ar
    23    21    22  ar
    24    22    23   1
    25    22    25  ar
    26    23    24   3
    27    25    26   1
    28    26    27   1
    29    26    28   1
    30    26    29   1
    31     1    30   1
    32     2    31   1
    33     5    32   1
    34     6    33   1
    35    11    34   1
    36    11    35   1
    37    13    36   1
    38    14    37   1
    39    14    38   1
    40    14    39   1
    41    17    40   1
    42    19    41   1
    43    20    42   1
    44    21    43   1
@<TRIPOS>SUBSTRUCTURE
     1  MOL      1

