@<TRIPOS>MOLECULE
1z95_ligand_042
    43    44
SMALL
GAST_HUCK
****
This file was generated by PARSER (from files_GN.cpp)

@<TRIPOS>ATOM
      1 C16        25.1305    1.4700    5.0567 C.ar        1 MOL      -0.0388
      2 C17        24.7103    0.3731    4.2813 C.ar        1 MOL      -0.0264
      3 C18        23.7540    0.5511    3.2649 C.ar        1 MOL       0.1325
      4 F18        23.3975   -0.4553    2.5145 F           1 MOL      -0.1834
      5 C19        23.2047    1.8276    3.0415 C.ar        1 MOL      -0.0264
      6 C20        23.6165    2.9225    3.8191 C.ar        1 MOL      -0.0388
      7 C15        24.6123    2.7571    4.8055 C.ar        1 MOL       0.0840
      8 S14        25.2812    4.1224    5.6500 S.o2        1 MOL      -0.0030
      9 O14        24.3570    5.3992    5.4421 O.2         1 MOL      -0.1699
     10 O15        25.2256    3.8325    7.2141 O.2         1 MOL      -0.1699
     11 C13        26.9825    4.5810    5.2019 C.3         1 MOL       0.1063
     12 C11        27.6200    3.9744    3.8902 C.3         1 MOL       0.1678
     13 O11        26.6031    3.8475    2.8898 O.3         1 MOL      -0.3823
     14 C12        28.6492    4.9785    3.2861 C.3         1 MOL      -0.0271
     15 C10        28.2877    2.6776    4.1228 C.2         1 MOL       0.2588
     16 O10        29.0959    2.5981    5.0439 O.2         1 MOL      -0.3300
     17 N9         28.1283    1.6346    3.3155 N.am        1 MOL      -0.2188
     18 C1         28.6549    0.3845    3.4924 C.ar        1 MOL       0.1074
     19 C2         29.8202   -0.0370    2.8148 C.ar        1 MOL       0.0010
     20 C6         27.9559   -0.5473    4.2800 C.ar        1 MOL      -0.0005
     21 C5         28.3594   -1.8888    4.3320 C.ar        1 MOL      -0.0119
     22 C4         29.5330   -2.3059    3.6681 C.ar        1 MOL       0.1068
     23 C8         29.8799   -3.5554    3.8066 C.1         1 MOL       0.1050
     24 N8         30.1951   -4.6528    3.9230 N.1         1 MOL      -0.3259
     25 C3         30.3007   -1.3743    2.9079 C.ar        1 MOL       0.0666
     26 C7         31.5842   -1.7881    2.2438 C.3         1 MOL       0.3787
     27 F7B        32.4766   -2.2150    3.1966 F           1 MOL      -0.2186
     28 F7C        31.3799   -2.8247    1.3726 F           1 MOL      -0.2186
     29 F7A        32.2036   -0.8069    1.5107 F           1 MOL      -0.2186
     30 H1         25.8396    1.3344    5.7814 H           1 MOL       0.0626
     31 H2         25.1305   -0.5458    4.4386 H           1 MOL       0.0604
     32 H3         22.5178    1.9638    2.2956 H           1 MOL       0.0604
     33 H4         23.2128    3.8431    3.6318 H           1 MOL       0.0626
     34 H5         27.6160    4.3575    6.0630 H           1 MOL       0.0518
     35 H6         26.9569    5.6709    5.1282 H           1 MOL       0.0518
     36 H7         26.2081    4.7411    2.7961 H           1 MOL       0.2079
     37 H8         29.0820    4.5819    2.3649 H           1 MOL       0.0244
     38 H9         29.4530    5.1871    3.9961 H           1 MOL       0.0244
     39 H10        28.1626    5.9252    3.0402 H           1 MOL       0.0244
     40 H11        27.5465    1.7503    2.5490 H           1 MOL       0.2319
     41 H12        30.3274    0.6541    2.2549 H           1 MOL       0.0781
     42 H13        27.1192   -0.2659    4.7946 H           1 MOL       0.0767
     43 H14        27.7826   -2.5486    4.8633 H           1 MOL       0.0766
@<TRIPOS>BOND
     1     1     2  ar
     2     1     7  ar
     3     2     3  ar
     4     3     4   1
     5     3     5  ar
     6     5     6  ar
     7     6     7  ar
     8     7     8   1
     9     8     9   2
    10     8    10   2
    11     8    11   1
    12    11    12   1
    13    12    13   1
    14    12    14   1
    15    12    15   1
    16    15    16   2
    17    15    17  am
    18    17    18   1
    19    18    19  ar
    20    18    20  ar
    21    19    25  ar
    22    20    21  ar
    23    21    22  ar
    24    22    23   1
    25    22    25  ar
    26    23    24   3
    27    25    26   1
    28    26    27   1
    29    26    28   1
    30    26    29   1
    31     1    30   1
    32     2    31   1
    33     5    32   1
    34     6    33   1
    35    11    34   1
    36    11    35   1
    37    13    36   1
    38    14    37   1
    39    14    38   1
    40    14    39   1
    41    17    40   1
    42    19    41   1
    43    20    42   1
    44    21    43   1
@<TRIPOS>SUBSTRUCTURE
     1  MOL      1

