@<TRIPOS>MOLECULE
1z95_ligand_019
    43    44
SMALL
GAST_HUCK
****
This file was generated by PARSER (from files_GN.cpp)

@<TRIPOS>ATOM
      1 C16        30.4411   -1.2832    5.5537 C.ar        1 MOL      -0.0388
      2 C17        30.0747   -1.8677    4.3297 C.ar        1 MOL      -0.0264
      3 C18        28.7700   -1.7064    3.8273 C.ar        1 MOL       0.1325
      4 F18        28.4256   -2.2799    2.7126 F           1 MOL      -0.1834
      5 C19        27.8383   -0.9346    4.5470 C.ar        1 MOL      -0.0264
      6 C20        28.2075   -0.3447    5.7752 C.ar        1 MOL      -0.0388
      7 C15        29.5002   -0.5347    6.3055 C.ar        1 MOL       0.0840
      8 S14        29.9093    0.0657    7.8835 S.o2        1 MOL      -0.0030
      9 O14        28.6096    0.7553    8.4957 O.2         1 MOL      -0.1699
     10 O15        30.2590   -1.1115    8.9067 O.2         1 MOL      -0.1699
     11 C13        31.1923    1.3374    7.9488 C.3         1 MOL       0.1063
     12 C11        31.7608    1.8623    6.5896 C.3         1 MOL       0.1678
     13 O11        32.3889    3.1219    6.8861 O.3         1 MOL      -0.3823
     14 C12        32.9305    0.9509    6.1067 C.3         1 MOL      -0.0271
     15 C10        30.6819    2.0613    5.6127 C.2         1 MOL       0.2588
     16 O10        30.5240    1.2861    4.6707 O.2         1 MOL      -0.3300
     17 N9         29.8488    3.0857    5.7734 N.am        1 MOL      -0.2188
     18 C1         28.6654    3.4242    5.1855 C.ar        1 MOL       0.1074
     19 C2         27.8967    2.5847    4.3387 C.ar        1 MOL       0.0010
     20 C6         28.1088    4.6625    5.5732 C.ar        1 MOL      -0.0005
     21 C5         26.8497    5.0779    5.1138 C.ar        1 MOL      -0.0119
     22 C4         26.0952    4.2401    4.2693 C.ar        1 MOL       0.1068
     23 C8         24.9132    4.6833    3.9129 C.1         1 MOL       0.1050
     24 N8         23.8742    5.0741    3.6101 N.1         1 MOL      -0.3259
     25 C3         26.6102    2.9733    3.8729 C.ar        1 MOL       0.0666
     26 C7         25.8201    2.0250    3.0380 C.3         1 MOL       0.3787
     27 F7B        24.6711    1.6795    3.7084 F           1 MOL      -0.2186
     28 F7C        25.4821    2.6149    1.8361 F           1 MOL      -0.2186
     29 F7A        26.4401    0.8295    2.7089 F           1 MOL      -0.2186
     30 H1         31.4001   -1.4044    5.8985 H           1 MOL       0.0626
     31 H2         30.7572   -2.4354    3.8206 H           1 MOL       0.0604
     32 H3         26.8767   -0.8231    4.1942 H           1 MOL       0.0604
     33 H4         27.5124    0.1994    6.2947 H           1 MOL       0.0626
     34 H5         32.0117    0.9168    8.5496 H           1 MOL       0.0518
     35 H6         30.7829    2.1713    8.5197 H           1 MOL       0.0518
     36 H7         32.7696    3.4849    6.0447 H           1 MOL       0.2079
     37 H8         33.4343    1.4071    5.2505 H           1 MOL       0.0244
     38 H9         32.5746   -0.0370    5.8076 H           1 MOL       0.0244
     39 H10        33.6704    0.8236    6.8999 H           1 MOL       0.0244
     40 H11        30.1136    3.6827    6.4882 H           1 MOL       0.2319
     41 H12        28.2691    1.6737    4.0839 H           1 MOL       0.0781
     42 H13        28.6089    5.2664    6.2254 H           1 MOL       0.0767
     43 H14        26.4891    5.9791    5.4434 H           1 MOL       0.0766
@<TRIPOS>BOND
     1     1     2  ar
     2     1     7  ar
     3     2     3  ar
     4     3     4   1
     5     3     5  ar
     6     5     6  ar
     7     6     7  ar
     8     7     8   1
     9     8     9   2
    10     8    10   2
    11     8    11   1
    12    11    12   1
    13    12    13   1
    14    12    14   1
    15    12    15   1
    16    15    16   2
    17    15    17  am
    18    17    18   1
    19    18    19  ar
    20    18    20  ar
    21    19    25  ar
    22    20    21  ar
    23    21    22  ar
    24    22    23   1
    25    22    25  ar
    26    23    24   3
    27    25    26   1
    28    26    27   1
    29    26    28   1
    30    26    29   1
    31     1    30   1
    32     2    31   1
    33     5    32   1
    34     6    33   1
    35    11    34   1
    36    11    35   1
    37    13    36   1
    38    14    37   1
    39    14    38   1
    40    14    39   1
    41    17    40   1
    42    19    41   1
    43    20    42   1
    44    21    43   1
@<TRIPOS>SUBSTRUCTURE
     1  MOL      1

