@<TRIPOS>MOLECULE
1z95_ligand_060
    43    44
SMALL
GAST_HUCK
****
This file was generated by PARSER (from files_GN.cpp)

@<TRIPOS>ATOM
      1 C16        33.9326    1.8143   11.9837 C.ar        1 MOL      -0.0388
      2 C17        34.6439    2.9288   12.4574 C.ar        1 MOL      -0.0264
      3 C18        34.0129    4.1805   12.5668 C.ar        1 MOL       0.1325
      4 F18        34.6988    5.2050   13.0061 F           1 MOL      -0.1834
      5 C19        32.6587    4.3128   12.2167 C.ar        1 MOL      -0.0264
      6 C20        31.9418    3.1959   11.7346 C.ar        1 MOL      -0.0388
      7 C15        32.5753    1.9383   11.6113 C.ar        1 MOL       0.0840
      8 S14        31.7510    0.5399   10.9780 S.o2        1 MOL      -0.0030
      9 O14        32.4840    0.1419    9.6230 O.2         1 MOL      -0.1699
     10 O15        31.9619   -0.6686   11.9899 O.2         1 MOL      -0.1699
     11 C13        29.9954    0.8439   10.6519 C.3         1 MOL       0.1063
     12 C11        29.0751   -0.4174   10.5131 C.3         1 MOL       0.1678
     13 O11        27.7439    0.0630   10.3247 O.3         1 MOL      -0.3823
     14 C12        29.4397   -1.1924    9.2063 C.3         1 MOL      -0.0271
     15 C10        29.0400   -1.2636   11.7142 C.2         1 MOL       0.2588
     16 O10        29.2505   -2.4695   11.6235 O.2         1 MOL      -0.3300
     17 N9         28.8491   -0.7108   12.9147 N.am        1 MOL      -0.2188
     18 C1         28.8354   -1.2991   14.1439 C.ar        1 MOL       0.1074
     19 C2         29.4163   -0.5677   15.1991 C.ar        1 MOL       0.0010
     20 C6         28.2673   -2.5545   14.4314 C.ar        1 MOL      -0.0005
     21 C5         28.2556   -3.0499   15.7411 C.ar        1 MOL      -0.0119
     22 C4         28.8138   -2.3044   16.8031 C.ar        1 MOL       0.1068
     23 C8         28.7062   -2.8114   18.0016 C.1         1 MOL       0.1050
     24 N8         28.6012   -3.2727   19.0453 N.1         1 MOL      -0.3259
     25 C3         29.4533   -1.0593   16.5344 C.ar        1 MOL       0.0666
     26 C7         30.1441   -0.2599   17.6024 C.3         1 MOL       0.3787
     27 F7B        29.2284    0.2479   18.4860 F           1 MOL      -0.2186
     28 F7C        31.0172   -1.0389   18.3257 F           1 MOL      -0.2186
     29 F7A        30.9050    0.7915   17.1367 F           1 MOL      -0.2186
     30 H1         34.4079    0.9104   11.9188 H           1 MOL       0.0626
     31 H2         35.6145    2.8291   12.7479 H           1 MOL       0.0604
     32 H3         32.1893    5.2179   12.2921 H           1 MOL       0.0604
     33 H4         30.9689    3.3115   11.4498 H           1 MOL       0.0626
     34 H5         29.9309    1.4511    9.7450 H           1 MOL       0.0518
     35 H6         29.6110    1.4684   11.4694 H           1 MOL       0.0518
     36 H7         27.5381    0.6142   11.1125 H           1 MOL       0.2079
     37 H8         28.7374   -2.0173    9.0395 H           1 MOL       0.0244
     38 H9         30.4461   -1.6163    9.2750 H           1 MOL       0.0244
     39 H10        29.3999   -0.5367    8.3329 H           1 MOL       0.0244
     40 H11        28.7956    0.2623   12.9186 H           1 MOL       0.2319
     41 H12        29.8379    0.3420   14.9831 H           1 MOL       0.0781
     42 H13        27.8425   -3.1123   13.6938 H           1 MOL       0.0767
     43 H14        27.8240   -3.9681   15.9068 H           1 MOL       0.0766
@<TRIPOS>BOND
     1     1     2  ar
     2     1     7  ar
     3     2     3  ar
     4     3     4   1
     5     3     5  ar
     6     5     6  ar
     7     6     7  ar
     8     7     8   1
     9     8     9   2
    10     8    10   2
    11     8    11   1
    12    11    12   1
    13    12    13   1
    14    12    14   1
    15    12    15   1
    16    15    16   2
    17    15    17  am
    18    17    18   1
    19    18    19  ar
    20    18    20  ar
    21    19    25  ar
    22    20    21  ar
    23    21    22  ar
    24    22    23   1
    25    22    25  ar
    26    23    24   3
    27    25    26   1
    28    26    27   1
    29    26    28   1
    30    26    29   1
    31     1    30   1
    32     2    31   1
    33     5    32   1
    34     6    33   1
    35    11    34   1
    36    11    35   1
    37    13    36   1
    38    14    37   1
    39    14    38   1
    40    14    39   1
    41    17    40   1
    42    19    41   1
    43    20    42   1
    44    21    43   1
@<TRIPOS>SUBSTRUCTURE
     1  MOL      1

