@<TRIPOS>MOLECULE
1z95_ligand_036
    43    44
SMALL
GAST_HUCK
****
This file was generated by PARSER (from files_GN.cpp)

@<TRIPOS>ATOM
      1 C16        29.2282    4.0753    5.5519 C.ar        1 MOL      -0.0388
      2 C17        29.7910    2.7991    5.3426 C.ar        1 MOL      -0.0264
      3 C18        29.4496    2.0639    4.1959 C.ar        1 MOL       0.1325
      4 F18        30.0078    0.9070    3.9602 F           1 MOL      -0.1834
      5 C19        28.5233    2.5975    3.2745 C.ar        1 MOL      -0.0264
      6 C20        27.9836    3.8778    3.4694 C.ar        1 MOL      -0.0388
      7 C15        28.3311    4.6352    4.6140 C.ar        1 MOL       0.0840
      8 S14        27.6989    6.2443    4.8486 S.o2        1 MOL      -0.0030
      9 O14        27.6336    6.6257    6.3945 O.2         1 MOL      -0.1699
     10 O15        28.7778    7.2529    4.2571 O.2         1 MOL      -0.1699
     11 C13        26.1077    6.6031    4.0582 C.3         1 MOL       0.1063
     12 C11        24.8445    6.1217    4.8488 C.3         1 MOL       0.1678
     13 O11        24.7140    6.9929    5.9776 O.3         1 MOL      -0.3823
     14 C12        23.5668    6.3624    3.9940 C.3         1 MOL      -0.0271
     15 C10        24.9492    4.7195    5.2549 C.2         1 MOL       0.2588
     16 O10        24.8490    4.4196    6.4412 O.2         1 MOL      -0.3300
     17 N9         25.1406    3.7836    4.3327 N.am        1 MOL      -0.2188
     18 C1         25.3486    2.4461    4.4851 C.ar        1 MOL       0.1074
     19 C2         26.4130    1.9016    5.2403 C.ar        1 MOL       0.0010
     20 C6         24.5336    1.5850    3.7259 C.ar        1 MOL      -0.0005
     21 C5         24.7627    0.2021    3.7374 C.ar        1 MOL      -0.0119
     22 C4         25.8323   -0.3418    4.4784 C.ar        1 MOL       0.1068
     23 C8         26.0037   -1.6373    4.4099 C.1         1 MOL       0.1050
     24 N8         26.1542   -2.7745    4.3516 N.1         1 MOL      -0.3259
     25 C3         26.6930    0.5059    5.2367 C.ar        1 MOL       0.0666
     26 C7         27.9028   -0.0258    5.9558 C.3         1 MOL       0.3787
     27 F7B        27.5387   -0.9905    6.8660 F           1 MOL      -0.2186
     28 F7C        28.7656   -0.6216    5.0560 F           1 MOL      -0.2186
     29 F7A        28.6441    0.9178    6.6352 F           1 MOL      -0.2186
     30 H1         29.4937    4.6010    6.3900 H           1 MOL       0.0626
     31 H2         30.4704    2.4280    6.0078 H           1 MOL       0.0604
     32 H3         28.2609    2.0593    2.4455 H           1 MOL       0.0604
     33 H4         27.3637    4.2691    2.7619 H           1 MOL       0.0626
     34 H5         26.1157    6.1705    3.0516 H           1 MOL       0.0518
     35 H6         26.0489    7.6911    3.9342 H           1 MOL       0.0518
     36 H7         23.7521    6.9993    6.1874 H           1 MOL       0.2079
     37 H8         22.6779    6.0416    4.5459 H           1 MOL       0.0244
     38 H9         23.6006    5.8047    3.0523 H           1 MOL       0.0244
     39 H10        23.4661    7.4212    3.7538 H           1 MOL       0.0244
     40 H11        25.0982    4.0879    3.4118 H           1 MOL       0.2319
     41 H12        27.0150    2.5393    5.7604 H           1 MOL       0.0781
     42 H13        23.7759    1.9587    3.1494 H           1 MOL       0.0767
     43 H14        24.1364   -0.3939    3.1879 H           1 MOL       0.0766
@<TRIPOS>BOND
     1     1     2  ar
     2     1     7  ar
     3     2     3  ar
     4     3     4   1
     5     3     5  ar
     6     5     6  ar
     7     6     7  ar
     8     7     8   1
     9     8     9   2
    10     8    10   2
    11     8    11   1
    12    11    12   1
    13    12    13   1
    14    12    14   1
    15    12    15   1
    16    15    16   2
    17    15    17  am
    18    17    18   1
    19    18    19  ar
    20    18    20  ar
    21    19    25  ar
    22    20    21  ar
    23    21    22  ar
    24    22    23   1
    25    22    25  ar
    26    23    24   3
    27    25    26   1
    28    26    27   1
    29    26    28   1
    30    26    29   1
    31     1    30   1
    32     2    31   1
    33     5    32   1
    34     6    33   1
    35    11    34   1
    36    11    35   1
    37    13    36   1
    38    14    37   1
    39    14    38   1
    40    14    39   1
    41    17    40   1
    42    19    41   1
    43    20    42   1
    44    21    43   1
@<TRIPOS>SUBSTRUCTURE
     1  MOL      1

