@<TRIPOS>MOLECULE
1z95_ligand_058
    43    44
SMALL
GAST_HUCK
****
This file was generated by PARSER (from files_GN.cpp)

@<TRIPOS>ATOM
      1 C16        27.5221    2.2733    5.7824 C.ar        1 MOL      -0.0388
      2 C17        28.8425    2.4961    6.2208 C.ar        1 MOL      -0.0264
      3 C18        29.9253    2.2036    5.3687 C.ar        1 MOL       0.1325
      4 F18        31.1538    2.4112    5.7718 F           1 MOL      -0.1834
      5 C19        29.6843    1.6875    4.0811 C.ar        1 MOL      -0.0264
      6 C20        28.3618    1.4782    3.6376 C.ar        1 MOL      -0.0388
      7 C15        27.2653    1.7670    4.4845 C.ar        1 MOL       0.0840
      8 S14        25.6417    1.4355    3.9222 S.o2        1 MOL      -0.0030
      9 O14        25.1622    2.4843    2.8276 O.2         1 MOL      -0.1699
     10 O15        25.7941    0.1029    3.0678 O.2         1 MOL      -0.1699
     11 C13        24.4222    1.0110    5.2008 C.3         1 MOL       0.1063
     12 C11        23.6636    2.1663    5.9536 C.3         1 MOL       0.1678
     13 O11        22.3360    2.2480    5.4154 O.3         1 MOL      -0.3823
     14 C12        23.4274    1.8299    7.4556 C.3         1 MOL      -0.0271
     15 C10        24.3214    3.4728    5.8373 C.2         1 MOL       0.2588
     16 O10        24.9898    3.8920    6.7746 O.2         1 MOL      -0.3300
     17 N9         24.1810    4.1824    4.7210 N.am        1 MOL      -0.2188
     18 C1         24.8336    5.3201    4.3549 C.ar        1 MOL       0.1074
     19 C2         26.1985    5.5541    4.6307 C.ar        1 MOL       0.0010
     20 C6         24.1351    6.2627    3.5850 C.ar        1 MOL      -0.0005
     21 C5         24.7653    7.4436    3.1581 C.ar        1 MOL      -0.0119
     22 C4         26.1143    7.6942    3.4867 C.ar        1 MOL       0.1068
     23 C8         26.6201    8.8323    3.0750 C.1         1 MOL       0.1050
     24 N8         27.0715    9.8205    2.7179 N.1         1 MOL      -0.3259
     25 C3         26.8633    6.7352    4.2355 C.ar        1 MOL       0.0666
     26 C7         28.3170    6.8717    4.5797 C.3         1 MOL       0.3787
     27 F7B        29.0496    6.7222    3.4353 F           1 MOL      -0.2186
     28 F7C        28.5842    8.0845    5.1570 F           1 MOL      -0.2186
     29 F7A        28.8117    5.9376    5.4664 F           1 MOL      -0.2186
     30 H1         26.7555    2.4781    6.4236 H           1 MOL       0.0626
     31 H2         29.0058    2.8608    7.1647 H           1 MOL       0.0604
     32 H3         30.4704    1.4639    3.4636 H           1 MOL       0.0604
     33 H4         28.2102    1.0950    2.6987 H           1 MOL       0.0626
     34 H5         24.9405    0.3567    5.9058 H           1 MOL       0.0518
     35 H6         23.6823    0.3757    4.7016 H           1 MOL       0.0518
     36 H7         22.4228    2.1212    4.4461 H           1 MOL       0.2079
     37 H8         22.8355    2.6280    7.9192 H           1 MOL       0.0244
     38 H9         24.3706    1.7607    7.9999 H           1 MOL       0.0244
     39 H10        22.8963    0.8868    7.5628 H           1 MOL       0.0244
     40 H11        23.5239    3.8701    4.0884 H           1 MOL       0.2319
     41 H12        26.7285    4.8141    5.0927 H           1 MOL       0.0781
     42 H13        23.1612    6.0933    3.3319 H           1 MOL       0.0767
     43 H14        24.2209    8.1075    2.6048 H           1 MOL       0.0766
@<TRIPOS>BOND
     1     1     2  ar
     2     1     7  ar
     3     2     3  ar
     4     3     4   1
     5     3     5  ar
     6     5     6  ar
     7     6     7  ar
     8     7     8   1
     9     8     9   2
    10     8    10   2
    11     8    11   1
    12    11    12   1
    13    12    13   1
    14    12    14   1
    15    12    15   1
    16    15    16   2
    17    15    17  am
    18    17    18   1
    19    18    19  ar
    20    18    20  ar
    21    19    25  ar
    22    20    21  ar
    23    21    22  ar
    24    22    23   1
    25    22    25  ar
    26    23    24   3
    27    25    26   1
    28    26    27   1
    29    26    28   1
    30    26    29   1
    31     1    30   1
    32     2    31   1
    33     5    32   1
    34     6    33   1
    35    11    34   1
    36    11    35   1
    37    13    36   1
    38    14    37   1
    39    14    38   1
    40    14    39   1
    41    17    40   1
    42    19    41   1
    43    20    42   1
    44    21    43   1
@<TRIPOS>SUBSTRUCTURE
     1  MOL      1

