@<TRIPOS>MOLECULE
1z95_ligand_044
    43    44
SMALL
GAST_HUCK
****
This file was generated by PARSER (from files_GN.cpp)

@<TRIPOS>ATOM
      1 C16        28.0381   -0.2180   13.6566 C.ar        1 MOL      -0.0388
      2 C17        27.3628   -0.2447   14.8873 C.ar        1 MOL      -0.0264
      3 C18        27.9734   -0.8301   16.0167 C.ar        1 MOL       0.1325
      4 F18        27.3298   -0.9076   17.1487 F           1 MOL      -0.1834
      5 C19        29.2782   -1.3455   15.9252 C.ar        1 MOL      -0.0264
      6 C20        29.9537   -1.3162   14.6996 C.ar        1 MOL      -0.0388
      7 C15        29.3243   -0.7826   13.5494 C.ar        1 MOL       0.0840
      8 S14        30.0693   -1.0045   11.9960 S.o2        1 MOL      -0.0030
      9 O14        31.6415   -1.2024   12.1119 O.2         1 MOL      -0.1699
     10 O15        29.5911   -2.4365   11.4808 O.2         1 MOL      -0.1699
     11 C13        29.6850    0.0998   10.6125 C.3         1 MOL       0.1063
     12 C11        29.8953    1.6433   10.7997 C.3         1 MOL       0.1678
     13 O11        28.9166    2.0938   11.7394 O.3         1 MOL      -0.3823
     14 C12        31.3002    1.9499   11.4167 C.3         1 MOL      -0.0271
     15 C10        29.7112    2.4187    9.5548 C.2         1 MOL       0.2588
     16 O10        29.9689    3.6174    9.5774 O.2         1 MOL      -0.3300
     17 N9         29.2213    1.8787    8.4323 N.am        1 MOL      -0.2188
     18 C1         29.0271    2.5157    7.2425 C.ar        1 MOL       0.1074
     19 C2         27.7177    2.6475    6.7352 C.ar        1 MOL       0.0010
     20 C6         30.1119    2.9640    6.4650 C.ar        1 MOL      -0.0005
     21 C5         29.8839    3.5451    5.2098 C.ar        1 MOL      -0.0119
     22 C4         28.5739    3.7158    4.7227 C.ar        1 MOL       0.1068
     23 C8         28.4402    4.2807    3.5544 C.1         1 MOL       0.1050
     24 N8         28.3290    4.7865    2.5292 N.1         1 MOL      -0.3259
     25 C3         27.4594    3.2771    5.4920 C.ar        1 MOL       0.0666
     26 C7         26.0428    3.4413    5.0255 C.3         1 MOL       0.3787
     27 F7B        25.7631    4.7721    4.8271 F           1 MOL      -0.2186
     28 F7C        25.8536    2.7746    3.8378 F           1 MOL      -0.2186
     29 F7A        25.0767    2.9786    5.8904 F           1 MOL      -0.2186
     30 H1         27.5708    0.1742   12.8450 H           1 MOL       0.0626
     31 H2         26.4188    0.1402   14.9519 H           1 MOL       0.0604
     32 H3         29.7257   -1.7611   16.7426 H           1 MOL       0.0604
     33 H4         30.8876   -1.7206   14.6471 H           1 MOL       0.0626
     34 H5         28.6378   -0.0690   10.3474 H           1 MOL       0.0518
     35 H6         30.2982   -0.2450    9.7707 H           1 MOL       0.0518
     36 H7         28.0419    1.9541   11.3011 H           1 MOL       0.2079
     37 H8         31.4694    3.0174   11.5305 H           1 MOL       0.0244
     38 H9         32.0859    1.5337   10.7846 H           1 MOL       0.0244
     39 H10        31.3867    1.5139   12.4117 H           1 MOL       0.0244
     40 H11        28.8949    0.9639    8.4985 H           1 MOL       0.2319
     41 H12        26.9455    2.3117    7.3139 H           1 MOL       0.0781
     42 H13        31.0688    2.8679    6.8149 H           1 MOL       0.0767
     43 H14        30.6993    3.8340    4.6594 H           1 MOL       0.0766
@<TRIPOS>BOND
     1     1     2  ar
     2     1     7  ar
     3     2     3  ar
     4     3     4   1
     5     3     5  ar
     6     5     6  ar
     7     6     7  ar
     8     7     8   1
     9     8     9   2
    10     8    10   2
    11     8    11   1
    12    11    12   1
    13    12    13   1
    14    12    14   1
    15    12    15   1
    16    15    16   2
    17    15    17  am
    18    17    18   1
    19    18    19  ar
    20    18    20  ar
    21    19    25  ar
    22    20    21  ar
    23    21    22  ar
    24    22    23   1
    25    22    25  ar
    26    23    24   3
    27    25    26   1
    28    26    27   1
    29    26    28   1
    30    26    29   1
    31     1    30   1
    32     2    31   1
    33     5    32   1
    34     6    33   1
    35    11    34   1
    36    11    35   1
    37    13    36   1
    38    14    37   1
    39    14    38   1
    40    14    39   1
    41    17    40   1
    42    19    41   1
    43    20    42   1
    44    21    43   1
@<TRIPOS>SUBSTRUCTURE
     1  MOL      1

