@<TRIPOS>MOLECULE
1z95_ligand_026
    43    44
SMALL
GAST_HUCK
****
This file was generated by PARSER (from files_GN.cpp)

@<TRIPOS>ATOM
      1 C16        28.2219   -0.6705    5.9211 C.ar        1 MOL      -0.0388
      2 C17        26.9205   -0.9813    5.4813 C.ar        1 MOL      -0.0264
      3 C18        26.7382   -1.7117    4.2946 C.ar        1 MOL       0.1325
      4 F18        25.5361   -2.0195    3.9021 F           1 MOL      -0.1834
      5 C19        27.8542   -2.1155    3.5379 C.ar        1 MOL      -0.0264
      6 C20        29.1549   -1.7994    3.9752 C.ar        1 MOL      -0.0388
      7 C15        29.3477   -1.0745    5.1719 C.ar        1 MOL       0.0840
      8 S14        30.9577   -0.7425    5.7445 S.o2        1 MOL      -0.0030
      9 O14        31.0523   -1.0480    7.2994 O.2         1 MOL      -0.1699
     10 O15        31.9834   -1.7602    5.0761 O.2         1 MOL      -0.1699
     11 C13        31.5887    0.9316    5.4387 C.3         1 MOL       0.1063
     12 C11        30.8437    2.1073    6.1720 C.3         1 MOL       0.1678
     13 O11        30.6361    1.7545    7.5475 O.3         1 MOL      -0.3823
     14 C12        31.7803    3.3428    6.2423 C.3         1 MOL      -0.0271
     15 C10        29.5540    2.4737    5.5758 C.2         1 MOL       0.2588
     16 O10        29.1793    1.9532    4.5264 O.2         1 MOL      -0.3300
     17 N9         28.7935    3.4037    6.1433 N.am        1 MOL      -0.2188
     18 C1         27.5526    3.7885    5.7254 C.ar        1 MOL       0.1074
     19 C2         27.3426    5.0600    5.1486 C.ar        1 MOL       0.0010
     20 C6         26.4594    2.9213    5.9009 C.ar        1 MOL      -0.0005
     21 C5         25.1742    3.3123    5.5109 C.ar        1 MOL      -0.0119
     22 C4         24.9623    4.5745    4.9092 C.ar        1 MOL       0.1068
     23 C8         23.7393    4.8542    4.5432 C.1         1 MOL       0.1050
     24 N8         22.6605    5.0865    4.2158 N.1         1 MOL      -0.3259
     25 C3         26.0553    5.4752    4.7140 C.ar        1 MOL       0.0666
     26 C7         25.8640    6.8129    4.0584 C.3         1 MOL       0.3787
     27 F7B        25.3949    6.6506    2.7785 F           1 MOL      -0.2186
     28 F7C        24.9545    7.5691    4.7558 F           1 MOL      -0.2186
     29 F7A        27.0040    7.5704    3.9563 F           1 MOL      -0.2186
     30 H1         28.3305   -0.1595    6.8000 H           1 MOL       0.0626
     31 H2         26.1116   -0.6822    6.0267 H           1 MOL       0.0604
     32 H3         27.7238   -2.6312    2.6661 H           1 MOL       0.0604
     33 H4         29.9531   -2.1180    3.4179 H           1 MOL       0.0626
     34 H5         31.5872    1.1088    4.3613 H           1 MOL       0.0518
     35 H6         32.6437    0.9056    5.7485 H           1 MOL       0.0518
     36 H7         29.9462    1.0426    7.5372 H           1 MOL       0.2079
     37 H8         31.3249    4.1396    6.8363 H           1 MOL       0.0244
     38 H9         31.9830    3.7197    5.2412 H           1 MOL       0.0244
     39 H10        32.7324    3.0906    6.7230 H           1 MOL       0.0244
     40 H11        29.1362    3.8464    6.9418 H           1 MOL       0.2319
     41 H12        28.1511    5.6730    5.0341 H           1 MOL       0.0781
     42 H13        26.5989    2.0044    6.3258 H           1 MOL       0.0767
     43 H14        24.3972    2.6650    5.6717 H           1 MOL       0.0766
@<TRIPOS>BOND
     1     1     2  ar
     2     1     7  ar
     3     2     3  ar
     4     3     4   1
     5     3     5  ar
     6     5     6  ar
     7     6     7  ar
     8     7     8   1
     9     8     9   2
    10     8    10   2
    11     8    11   1
    12    11    12   1
    13    12    13   1
    14    12    14   1
    15    12    15   1
    16    15    16   2
    17    15    17  am
    18    17    18   1
    19    18    19  ar
    20    18    20  ar
    21    19    25  ar
    22    20    21  ar
    23    21    22  ar
    24    22    23   1
    25    22    25  ar
    26    23    24   3
    27    25    26   1
    28    26    27   1
    29    26    28   1
    30    26    29   1
    31     1    30   1
    32     2    31   1
    33     5    32   1
    34     6    33   1
    35    11    34   1
    36    11    35   1
    37    13    36   1
    38    14    37   1
    39    14    38   1
    40    14    39   1
    41    17    40   1
    42    19    41   1
    43    20    42   1
    44    21    43   1
@<TRIPOS>SUBSTRUCTURE
     1  MOL      1

