@<TRIPOS>MOLECULE
1z95_ligand_046
    43    44
SMALL
GAST_HUCK
****
This file was generated by PARSER (from files_GN.cpp)

@<TRIPOS>ATOM
      1 C16        27.4715   -0.3940    2.5426 C.ar        1 MOL      -0.0388
      2 C17        28.2321   -1.4685    2.9864 C.ar        1 MOL      -0.0264
      3 C18        27.8579   -2.1840    4.1494 C.ar        1 MOL       0.1325
      4 F18        28.5556   -3.2046    4.5301 F           1 MOL      -0.1834
      5 C19        26.7107   -1.7665    4.8661 C.ar        1 MOL      -0.0264
      6 C20        25.9415   -0.6883    4.4098 C.ar        1 MOL      -0.0388
      7 C15        26.2852    0.0025    3.2309 C.ar        1 MOL       0.0840
      8 S14        25.2789    1.2268    2.5427 S.o2        1 MOL      -0.0030
      9 O14        26.1342    2.5967    2.3591 O.2         1 MOL      -0.1699
     10 O15        25.1485    0.7966    1.0055 O.2         1 MOL      -0.1699
     11 C13        23.5643    1.4431    3.0848 C.3         1 MOL       0.1063
     12 C11        23.0747    2.6458    3.9871 C.3         1 MOL       0.1678
     13 O11        21.8301    3.1029    3.4254 O.3         1 MOL      -0.3823
     14 C12        22.7123    2.2094    5.4403 C.3         1 MOL      -0.0271
     15 C10        23.9918    3.7851    4.0516 C.2         1 MOL       0.2588
     16 O10        23.6206    4.8927    3.7155 O.2         1 MOL      -0.3300
     17 N9         25.1842    3.5822    4.6156 N.am        1 MOL      -0.2188
     18 C1         26.2478    4.4088    4.8268 C.ar        1 MOL       0.1074
     19 C2         27.3217    3.8215    5.5277 C.ar        1 MOL       0.0010
     20 C6         26.3466    5.7565    4.4416 C.ar        1 MOL      -0.0005
     21 C5         27.4223    6.5390    4.8709 C.ar        1 MOL      -0.0119
     22 C4         28.4420    5.9635    5.6734 C.ar        1 MOL       0.1068
     23 C8         29.2866    6.8223    6.1999 C.1         1 MOL       0.1050
     24 N8         29.9580    7.6035    6.6680 N.1         1 MOL      -0.3259
     25 C3         28.4333    4.5759    5.9774 C.ar        1 MOL       0.0666
     26 C7         29.5430    3.8809    6.7198 C.3         1 MOL       0.3787
     27 F7B        30.6514    3.8159    5.9174 F           1 MOL      -0.2186
     28 F7C        29.8737    4.5261    7.8823 F           1 MOL      -0.2186
     29 F7A        29.2727    2.5874    7.1012 F           1 MOL      -0.2186
     30 H1         27.7557    0.1014    1.6974 H           1 MOL       0.0626
     31 H2         29.0712   -1.7498    2.4737 H           1 MOL       0.0604
     32 H3         26.4419   -2.2693    5.7126 H           1 MOL       0.0604
     33 H4         25.1135   -0.4049    4.9496 H           1 MOL       0.0626
     34 H5         23.2831    0.4990    3.5566 H           1 MOL       0.0518
     35 H6         22.9894    1.4775    2.1583 H           1 MOL       0.0518
     36 H7         21.4542    3.7386    4.0751 H           1 MOL       0.2079
     37 H8         22.3922    3.0704    6.0351 H           1 MOL       0.0244
     38 H9         23.5672    1.7506    5.9382 H           1 MOL       0.0244
     39 H10        21.8955    1.4915    5.4355 H           1 MOL       0.0244
     40 H11        25.3445    2.6647    4.8723 H           1 MOL       0.2319
     41 H12        27.2729    2.8181    5.7359 H           1 MOL       0.0781
     42 H13        25.6284    6.2116    3.8823 H           1 MOL       0.0767
     43 H14        27.4449    7.5240    4.6057 H           1 MOL       0.0766
@<TRIPOS>BOND
     1     1     2  ar
     2     1     7  ar
     3     2     3  ar
     4     3     4   1
     5     3     5  ar
     6     5     6  ar
     7     6     7  ar
     8     7     8   1
     9     8     9   2
    10     8    10   2
    11     8    11   1
    12    11    12   1
    13    12    13   1
    14    12    14   1
    15    12    15   1
    16    15    16   2
    17    15    17  am
    18    17    18   1
    19    18    19  ar
    20    18    20  ar
    21    19    25  ar
    22    20    21  ar
    23    21    22  ar
    24    22    23   1
    25    22    25  ar
    26    23    24   3
    27    25    26   1
    28    26    27   1
    29    26    28   1
    30    26    29   1
    31     1    30   1
    32     2    31   1
    33     5    32   1
    34     6    33   1
    35    11    34   1
    36    11    35   1
    37    13    36   1
    38    14    37   1
    39    14    38   1
    40    14    39   1
    41    17    40   1
    42    19    41   1
    43    20    42   1
    44    21    43   1
@<TRIPOS>SUBSTRUCTURE
     1  MOL      1

