@<TRIPOS>MOLECULE
1z95_ligand_047
    43    44
SMALL
GAST_HUCK
****
This file was generated by PARSER (from files_GN.cpp)

@<TRIPOS>ATOM
      1 C16        29.4994    0.9691    3.6966 C.ar        1 MOL      -0.0388
      2 C17        30.4286    0.3399    2.8554 C.ar        1 MOL      -0.0264
      3 C18        30.4515   -1.0619    2.7367 C.ar        1 MOL       0.1325
      4 F18        31.3555   -1.6365    1.9945 F           1 MOL      -0.1834
      5 C19        29.5071   -1.8385    3.4454 C.ar        1 MOL      -0.0264
      6 C20        28.5629   -1.2079    4.2775 C.ar        1 MOL      -0.0388
      7 C15        28.5512    0.2016    4.4158 C.ar        1 MOL       0.0840
      8 S14        27.4067    0.9612    5.4926 S.o2        1 MOL      -0.0030
      9 O14        26.0776    0.0853    5.5436 O.2         1 MOL      -0.1699
     10 O15        28.0323    0.8667    6.9524 O.2         1 MOL      -0.1699
     11 C13        27.0732    2.7136    5.1359 C.3         1 MOL       0.1063
     12 C11        25.5683    3.1428    5.1141 C.3         1 MOL       0.1678
     13 O11        25.0955    3.1453    6.4702 O.3         1 MOL      -0.3823
     14 C12        25.4235    4.6115    4.6188 C.3         1 MOL      -0.0271
     15 C10        24.7526    2.2642    4.2655 C.2         1 MOL       0.2588
     16 O10        23.7645    1.7104    4.7373 O.2         1 MOL      -0.3300
     17 N9         25.1131    2.0783    2.9977 N.am        1 MOL      -0.2188
     18 C1         24.6263    1.2758    2.0025 C.ar        1 MOL       0.1074
     19 C2         23.6954    0.2196    2.1432 C.ar        1 MOL       0.0010
     20 C6         25.1608    1.5191    0.7238 C.ar        1 MOL      -0.0005
     21 C5         24.7507    0.7735   -0.3920 C.ar        1 MOL      -0.0119
     22 C4         23.8050   -0.2630   -0.2509 C.ar        1 MOL       0.1068
     23 C8         23.4795   -0.9181   -1.3322 C.1         1 MOL       0.1050
     24 N8         23.1629   -1.4679   -2.2899 N.1         1 MOL      -0.3259
     25 C3         23.2687   -0.5709    1.0366 C.ar        1 MOL       0.0666
     26 C7         22.3009   -1.7020    1.2527 C.3         1 MOL       0.3787
     27 F7B        21.1575   -1.4949    0.5256 F           1 MOL      -0.2186
     28 F7C        22.8535   -2.8970    0.8649 F           1 MOL      -0.2186
     29 F7A        21.8914   -1.8925    2.5542 F           1 MOL      -0.2186
     30 H1         29.5277    1.9855    3.7923 H           1 MOL       0.0626
     31 H2         31.1031    0.9045    2.3352 H           1 MOL       0.0604
     32 H3         29.5140   -2.8545    3.3614 H           1 MOL       0.0604
     33 H4         27.8955   -1.7878    4.7888 H           1 MOL       0.0626
     34 H5         27.5302    2.9554    4.1731 H           1 MOL       0.0518
     35 H6         27.5977    3.3031    5.8918 H           1 MOL       0.0518
     36 H7         25.0903    2.2076    6.7534 H           1 MOL       0.2079
     37 H8         24.3748    4.9239    4.6359 H           1 MOL       0.0244
     38 H9         25.8015    4.7237    3.5985 H           1 MOL       0.0244
     39 H10        25.9853    5.2912    5.2675 H           1 MOL       0.0244
     40 H11        25.8645    2.6218    2.7178 H           1 MOL       0.2319
     41 H12        23.3443    0.0025    3.0688 H           1 MOL       0.0781
     42 H13        25.8401    2.2705    0.5815 H           1 MOL       0.0767
     43 H14        25.1649    1.0003   -1.3066 H           1 MOL       0.0766
@<TRIPOS>BOND
     1     1     2  ar
     2     1     7  ar
     3     2     3  ar
     4     3     4   1
     5     3     5  ar
     6     5     6  ar
     7     6     7  ar
     8     7     8   1
     9     8     9   2
    10     8    10   2
    11     8    11   1
    12    11    12   1
    13    12    13   1
    14    12    14   1
    15    12    15   1
    16    15    16   2
    17    15    17  am
    18    17    18   1
    19    18    19  ar
    20    18    20  ar
    21    19    25  ar
    22    20    21  ar
    23    21    22  ar
    24    22    23   1
    25    22    25  ar
    26    23    24   3
    27    25    26   1
    28    26    27   1
    29    26    28   1
    30    26    29   1
    31     1    30   1
    32     2    31   1
    33     5    32   1
    34     6    33   1
    35    11    34   1
    36    11    35   1
    37    13    36   1
    38    14    37   1
    39    14    38   1
    40    14    39   1
    41    17    40   1
    42    19    41   1
    43    20    42   1
    44    21    43   1
@<TRIPOS>SUBSTRUCTURE
     1  MOL      1

