@<TRIPOS>MOLECULE
1z95_ligand_007
    43    44
SMALL
GAST_HUCK
****
This file was generated by PARSER (from files_GN.cpp)

@<TRIPOS>ATOM
      1 C16        30.6464    1.6428   10.9932 C.ar        1 MOL      -0.0388
      2 C17        31.8112    1.8959   11.7446 C.ar        1 MOL      -0.0264
      3 C18        33.0397    1.3329   11.3511 C.ar        1 MOL       0.1325
      4 F18        34.1265    1.5962   12.0224 F           1 MOL      -0.1834
      5 C19        33.0958    0.5022   10.2157 C.ar        1 MOL      -0.0264
      6 C20        31.9364    0.2503    9.4651 C.ar        1 MOL      -0.0388
      7 C15        30.7065    0.8303    9.8381 C.ar        1 MOL       0.0840
      8 S14        29.2887    0.5181    8.8781 S.o2        1 MOL      -0.0030
      9 O14        28.8380   -0.9704    9.2070 O.2         1 MOL      -0.1699
     10 O15        28.0867    1.4877    9.2619 O.2         1 MOL      -0.1699
     11 C13        29.6074    0.6051    7.0939 C.3         1 MOL       0.1063
     12 C11        29.9957    2.0270    6.5227 C.3         1 MOL       0.1678
     13 O11        30.4565    2.8881    7.5770 O.3         1 MOL      -0.3823
     14 C12        31.2239    1.9413    5.5646 C.3         1 MOL      -0.0271
     15 C10        28.8766    2.6644    5.8130 C.2         1 MOL       0.2588
     16 O10        28.3189    2.0344    4.9166 O.2         1 MOL      -0.3300
     17 N9         28.5551    3.9372    6.0283 N.am        1 MOL      -0.2188
     18 C1         27.5434    4.6379    5.4432 C.ar        1 MOL       0.1074
     19 C2         26.2213    4.1448    5.4228 C.ar        1 MOL       0.0010
     20 C6         27.8087    5.9123    4.9090 C.ar        1 MOL      -0.0005
     21 C5         26.7809    6.6478    4.2954 C.ar        1 MOL      -0.0119
     22 C4         25.4616    6.1367    4.2510 C.ar        1 MOL       0.1068
     23 C8         24.5617    6.8677    3.6489 C.1         1 MOL       0.1050
     24 N8         23.7775    7.5150    3.1168 N.1         1 MOL      -0.3259
     25 C3         25.1565    4.8781    4.8474 C.ar        1 MOL       0.0666
     26 C7         23.7600    4.3275    4.9046 C.3         1 MOL       0.3787
     27 F7B        22.9403    5.1971    5.5829 F           1 MOL      -0.2186
     28 F7C        23.2557    4.1517    3.6388 F           1 MOL      -0.2186
     29 F7A        23.6292    3.1131    5.5423 F           1 MOL      -0.2186
     30 H1         29.7618    2.0575   11.2952 H           1 MOL       0.0626
     31 H2         31.7613    2.4975   12.5709 H           1 MOL       0.0604
     32 H3         33.9758    0.0794    9.9221 H           1 MOL       0.0604
     33 H4         32.0025   -0.3594    8.6470 H           1 MOL       0.0626
     34 H5         28.7068    0.2145    6.6149 H           1 MOL       0.0518
     35 H6         30.3879   -0.1268    6.8752 H           1 MOL       0.0518
     36 H7         29.6876    3.0195    8.1743 H           1 MOL       0.2079
     37 H8         31.5145    2.9345    5.2136 H           1 MOL       0.0244
     38 H9         31.0072    1.3190    4.6956 H           1 MOL       0.0244
     39 H10        32.0806    1.5111    6.0894 H           1 MOL       0.0244
     40 H11        29.1327    4.4390    6.6261 H           1 MOL       0.2319
     41 H12        26.0495    3.2398    5.8616 H           1 MOL       0.0781
     42 H13        28.7587    6.3008    4.9283 H           1 MOL       0.0767
     43 H14        27.0110    7.5572    3.8818 H           1 MOL       0.0766
@<TRIPOS>BOND
     1     1     2  ar
     2     1     7  ar
     3     2     3  ar
     4     3     4   1
     5     3     5  ar
     6     5     6  ar
     7     6     7  ar
     8     7     8   1
     9     8     9   2
    10     8    10   2
    11     8    11   1
    12    11    12   1
    13    12    13   1
    14    12    14   1
    15    12    15   1
    16    15    16   2
    17    15    17  am
    18    17    18   1
    19    18    19  ar
    20    18    20  ar
    21    19    25  ar
    22    20    21  ar
    23    21    22  ar
    24    22    23   1
    25    22    25  ar
    26    23    24   3
    27    25    26   1
    28    26    27   1
    29    26    28   1
    30    26    29   1
    31     1    30   1
    32     2    31   1
    33     5    32   1
    34     6    33   1
    35    11    34   1
    36    11    35   1
    37    13    36   1
    38    14    37   1
    39    14    38   1
    40    14    39   1
    41    17    40   1
    42    19    41   1
    43    20    42   1
    44    21    43   1
@<TRIPOS>SUBSTRUCTURE
     1  MOL      1

