@<TRIPOS>MOLECULE
1z95_ligand_023
    43    44
SMALL
GAST_HUCK
****
This file was generated by PARSER (from files_GN.cpp)

@<TRIPOS>ATOM
      1 C16        30.1063   -0.8013    8.0096 C.ar        1 MOL      -0.0388
      2 C17        30.4572   -0.3649    6.7133 C.ar        1 MOL      -0.0264
      3 C18        31.6839    0.2931    6.5042 C.ar        1 MOL       0.1325
      4 F18        32.0106    0.7001    5.3063 F           1 MOL      -0.1834
      5 C19        32.5534    0.5161    7.5812 C.ar        1 MOL      -0.0264
      6 C20        32.1964    0.0966    8.8815 C.ar        1 MOL      -0.0388
      7 C15        30.9725   -0.5749    9.0974 C.ar        1 MOL       0.0840
      8 S14        30.5413   -1.1367   10.6976 S.o2        1 MOL      -0.0030
      9 O14        30.4730   -2.7258   10.5706 O.2         1 MOL      -0.1699
     10 O15        31.6924   -0.9144   11.7669 O.2         1 MOL      -0.1699
     11 C13        28.9212   -0.6507   11.3617 C.3         1 MOL       0.1063
     12 C11        28.5977    0.8647   11.6248 C.3         1 MOL       0.1678
     13 O11        27.4710    0.8758   12.5199 O.3         1 MOL      -0.3823
     14 C12        29.7047    1.5981   12.4343 C.3         1 MOL      -0.0271
     15 C10        28.2649    1.5855   10.3988 C.2         1 MOL       0.2588
     16 O10        27.1855    2.2042   10.3594 O.2         1 MOL      -0.3300
     17 N9         29.1039    1.7125    9.3808 N.am        1 MOL      -0.2188
     18 C1         28.9275    2.2217    8.1166 C.ar        1 MOL       0.1074
     19 C2         27.6765    2.3735    7.4659 C.ar        1 MOL       0.0010
     20 C6         30.0760    2.5808    7.3836 C.ar        1 MOL      -0.0005
     21 C5         29.9893    3.0146    6.0510 C.ar        1 MOL      -0.0119
     22 C4         28.7268    3.2086    5.4445 C.ar        1 MOL       0.1068
     23 C8         28.7122    3.6802    4.2241 C.1         1 MOL       0.1050
     24 N8         28.6862    4.0989    3.1534 N.1         1 MOL      -0.3259
     25 C3         27.5415    2.9153    6.1652 C.ar        1 MOL       0.0666
     26 C7         26.1771    3.2393    5.6122 C.3         1 MOL       0.3787
     27 F7B        26.0985    4.5839    5.3301 F           1 MOL      -0.2186
     28 F7C        25.9385    2.5454    4.4510 F           1 MOL      -0.2186
     29 F7A        25.1265    2.9722    6.4588 F           1 MOL      -0.2186
     30 H1         29.2232   -1.2991    8.1417 H           1 MOL       0.0626
     31 H2         29.8210   -0.5365    5.9300 H           1 MOL       0.0604
     32 H3         33.4525    0.9872    7.4327 H           1 MOL       0.0604
     33 H4         32.8481    0.2617    9.6496 H           1 MOL       0.0626
     34 H5         28.8466   -1.1866   12.3102 H           1 MOL       0.0518
     35 H6         28.1604   -1.0721   10.7051 H           1 MOL       0.0518
     36 H7         27.1439   -0.0465   12.5909 H           1 MOL       0.2079
     37 H8         29.3643    2.5964   12.7141 H           1 MOL       0.0244
     38 H9         30.6185    1.6993   11.8511 H           1 MOL       0.0244
     39 H10        29.9303    1.0543   13.3530 H           1 MOL       0.0244
     40 H11        29.9942    1.3707    9.5632 H           1 MOL       0.2319
     41 H12        26.8403    2.0806    7.9633 H           1 MOL       0.0781
     42 H13        30.9978    2.5007    7.8081 H           1 MOL       0.0767
     43 H14        30.8562    3.2118    5.5377 H           1 MOL       0.0766
@<TRIPOS>BOND
     1     1     2  ar
     2     1     7  ar
     3     2     3  ar
     4     3     4   1
     5     3     5  ar
     6     5     6  ar
     7     6     7  ar
     8     7     8   1
     9     8     9   2
    10     8    10   2
    11     8    11   1
    12    11    12   1
    13    12    13   1
    14    12    14   1
    15    12    15   1
    16    15    16   2
    17    15    17  am
    18    17    18   1
    19    18    19  ar
    20    18    20  ar
    21    19    25  ar
    22    20    21  ar
    23    21    22  ar
    24    22    23   1
    25    22    25  ar
    26    23    24   3
    27    25    26   1
    28    26    27   1
    29    26    28   1
    30    26    29   1
    31     1    30   1
    32     2    31   1
    33     5    32   1
    34     6    33   1
    35    11    34   1
    36    11    35   1
    37    13    36   1
    38    14    37   1
    39    14    38   1
    40    14    39   1
    41    17    40   1
    42    19    41   1
    43    20    42   1
    44    21    43   1
@<TRIPOS>SUBSTRUCTURE
     1  MOL      1

