@<TRIPOS>MOLECULE
1z95_ligand_050
    43    44
SMALL
GAST_HUCK
****
This file was generated by PARSER (from files_GN.cpp)

@<TRIPOS>ATOM
      1 C16        30.2957    1.9534   13.4478 C.ar        1 MOL      -0.0388
      2 C17        29.9515    2.9653   14.3673 C.ar        1 MOL      -0.0264
      3 C18        30.6970    4.1538   14.4329 C.ar        1 MOL       0.1325
      4 F18        30.4001    5.0749   15.3105 F           1 MOL      -0.1834
      5 C19        31.7765    4.3373   13.5486 C.ar        1 MOL      -0.0264
      6 C20        32.0846    3.3554   12.5857 C.ar        1 MOL      -0.0388
      7 C15        31.3415    2.1546   12.5170 C.ar        1 MOL       0.0840
      8 S14        31.6725    0.9665   11.2762 S.o2        1 MOL      -0.0030
      9 O14        33.1421    1.2453   10.7340 O.2         1 MOL      -0.1699
     10 O15        31.7161   -0.5250   11.8238 O.2         1 MOL      -0.1699
     11 C13        30.6036    1.2104    9.8280 C.3         1 MOL       0.1063
     12 C11        29.1959    0.5132    9.7081 C.3         1 MOL       0.1678
     13 O11        29.3473   -0.6327    8.8659 O.3         1 MOL      -0.3823
     14 C12        28.5694   -0.0534   11.0245 C.3         1 MOL      -0.0271
     15 C10        28.2478    1.4450    9.0779 C.2         1 MOL       0.2588
     16 O10        27.6052    2.1960    9.8051 O.2         1 MOL      -0.3300
     17 N9         28.2324    1.6271    7.7579 N.am        1 MOL      -0.2188
     18 C1         27.4115    2.4116    6.9749 C.ar        1 MOL       0.1074
     19 C2         27.8045    2.6269    5.6349 C.ar        1 MOL       0.0010
     20 C6         26.1775    2.9646    7.3946 C.ar        1 MOL      -0.0005
     21 C5         25.3844    3.7226    6.5228 C.ar        1 MOL      -0.0119
     22 C4         25.7960    3.9433    5.1959 C.ar        1 MOL       0.1068
     23 C8         24.9984    4.6610    4.4436 C.1         1 MOL       0.1050
     24 N8         24.2910    5.2913    3.7971 N.1         1 MOL      -0.3259
     25 C3         27.0190    3.3855    4.7233 C.ar        1 MOL       0.0666
     26 C7         27.4663    3.5666    3.3056 C.3         1 MOL       0.3787
     27 F7B        26.5257    3.0322    2.4568 F           1 MOL      -0.2186
     28 F7C        27.6151    4.9033    3.0187 F           1 MOL      -0.2186
     29 F7A        28.6621    2.9691    2.9829 F           1 MOL      -0.2186
     30 H1         29.7798    1.0705   13.4705 H           1 MOL       0.0626
     31 H2         29.1526    2.8420   14.9802 H           1 MOL       0.0604
     32 H3         32.3412    5.1918   13.6002 H           1 MOL       0.0604
     33 H4         32.8649    3.5214   11.9522 H           1 MOL       0.0626
     34 H5         31.2007    0.9223    8.9545 H           1 MOL       0.0518
     35 H6         30.4964    2.2950    9.7553 H           1 MOL       0.0518
     36 H7         30.0155   -1.2024    9.2962 H           1 MOL       0.2079
     37 H8         27.6196   -0.5491   10.8109 H           1 MOL       0.0244
     38 H9         28.3905    0.7425   11.7460 H           1 MOL       0.0244
     39 H10        29.2121   -0.7933   11.4879 H           1 MOL       0.0244
     40 H11        28.9114    1.1344    7.2693 H           1 MOL       0.2319
     41 H12        28.6860    2.2123    5.3250 H           1 MOL       0.0781
     42 H13        25.8165    2.8110    8.3371 H           1 MOL       0.0767
     43 H14        24.4970    4.1024    6.8741 H           1 MOL       0.0766
@<TRIPOS>BOND
     1     1     2  ar
     2     1     7  ar
     3     2     3  ar
     4     3     4   1
     5     3     5  ar
     6     5     6  ar
     7     6     7  ar
     8     7     8   1
     9     8     9   2
    10     8    10   2
    11     8    11   1
    12    11    12   1
    13    12    13   1
    14    12    14   1
    15    12    15   1
    16    15    16   2
    17    15    17  am
    18    17    18   1
    19    18    19  ar
    20    18    20  ar
    21    19    25  ar
    22    20    21  ar
    23    21    22  ar
    24    22    23   1
    25    22    25  ar
    26    23    24   3
    27    25    26   1
    28    26    27   1
    29    26    28   1
    30    26    29   1
    31     1    30   1
    32     2    31   1
    33     5    32   1
    34     6    33   1
    35    11    34   1
    36    11    35   1
    37    13    36   1
    38    14    37   1
    39    14    38   1
    40    14    39   1
    41    17    40   1
    42    19    41   1
    43    20    42   1
    44    21    43   1
@<TRIPOS>SUBSTRUCTURE
     1  MOL      1

