@<TRIPOS>MOLECULE
1z95_ligand_031
    43    44
SMALL
GAST_HUCK
****
This file was generated by PARSER (from files_GN.cpp)

@<TRIPOS>ATOM
      1 C16        28.1942   -0.2888   13.5318 C.ar        1 MOL      -0.0388
      2 C17        27.8808   -0.3090   14.9027 C.ar        1 MOL      -0.0264
      3 C18        28.8112   -0.8140   15.8283 C.ar        1 MOL       0.1325
      4 F18        28.5204   -0.8381   17.0996 F           1 MOL      -0.1834
      5 C19        30.0588   -1.2846   15.3804 C.ar        1 MOL      -0.0264
      6 C20        30.3687   -1.2682   14.0067 C.ar        1 MOL      -0.0388
      7 C15        29.4356   -0.7774   13.0673 C.ar        1 MOL       0.0840
      8 S14        29.7579   -0.9165   11.3594 S.o2        1 MOL      -0.0030
      9 O14        31.3127   -1.0494   11.0305 O.2         1 MOL      -0.1699
     10 O15        29.1530   -2.3331   10.9591 O.2         1 MOL      -0.1699
     11 C13        28.9167    0.2795   10.2936 C.3         1 MOL       0.1063
     12 C11        29.5797    1.6882   10.0069 C.3         1 MOL       0.1678
     13 O11        28.5575    2.6502   10.3243 O.3         1 MOL      -0.3823
     14 C12        30.7823    2.0780   10.9213 C.3         1 MOL      -0.0271
     15 C10        29.9401    1.8989    8.5944 C.2         1 MOL       0.2588
     16 O10        29.8239    3.0385    8.1274 O.2         1 MOL      -0.3300
     17 N9         30.3665    0.9055    7.8222 N.am        1 MOL      -0.2188
     18 C1         30.3777    0.7441    6.4573 C.ar        1 MOL       0.1074
     19 C2         30.6876   -0.5528    5.9873 C.ar        1 MOL       0.0010
     20 C6         29.9744    1.7090    5.5047 C.ar        1 MOL      -0.0005
     21 C5         29.8735    1.3821    4.1431 C.ar        1 MOL      -0.0119
     22 C4         30.1662    0.0760    3.6962 C.ar        1 MOL       0.1068
     23 C8         30.0208   -0.1629    2.4148 C.1         1 MOL       0.1050
     24 N8         29.8887   -0.3734    1.2989 N.1         1 MOL      -0.3259
     25 C3         30.5859   -0.9238    4.6196 C.ar        1 MOL       0.0666
     26 C7         30.8942   -2.3296    4.1817 C.3         1 MOL       0.3787
     27 F7B        29.7805   -2.9026    3.6147 F           1 MOL      -0.2186
     28 F7C        31.9068   -2.3355    3.2529 F           1 MOL      -0.2186
     29 F7A        31.2966   -3.1863    5.1790 F           1 MOL      -0.2186
     30 H1         27.4889    0.0568   12.8836 H           1 MOL       0.0626
     31 H2         26.9734    0.0402   15.2165 H           1 MOL       0.0604
     32 H3         30.7420   -1.6505   16.0452 H           1 MOL       0.0604
     33 H4         31.2699   -1.6444   13.7000 H           1 MOL       0.0626
     34 H5         27.9217    0.4087   10.7179 H           1 MOL       0.0518
     35 H6         28.7296   -0.2542    9.3627 H           1 MOL       0.0518
     36 H7         28.3350    2.5129   11.2717 H           1 MOL       0.2079
     37 H8         31.0647    3.1220   10.7662 H           1 MOL       0.0244
     38 H9         31.6640    1.4625   10.7124 H           1 MOL       0.0244
     39 H10        30.5117    1.9556   11.9726 H           1 MOL       0.0244
     40 H11        30.5892    0.0946    8.3084 H           1 MOL       0.2319
     41 H12        30.9699   -1.2538    6.6738 H           1 MOL       0.0781
     42 H13        29.7125    2.6516    5.7827 H           1 MOL       0.0767
     43 H14        29.5584    2.1069    3.4899 H           1 MOL       0.0766
@<TRIPOS>BOND
     1     1     2  ar
     2     1     7  ar
     3     2     3  ar
     4     3     4   1
     5     3     5  ar
     6     5     6  ar
     7     6     7  ar
     8     7     8   1
     9     8     9   2
    10     8    10   2
    11     8    11   1
    12    11    12   1
    13    12    13   1
    14    12    14   1
    15    12    15   1
    16    15    16   2
    17    15    17  am
    18    17    18   1
    19    18    19  ar
    20    18    20  ar
    21    19    25  ar
    22    20    21  ar
    23    21    22  ar
    24    22    23   1
    25    22    25  ar
    26    23    24   3
    27    25    26   1
    28    26    27   1
    29    26    28   1
    30    26    29   1
    31     1    30   1
    32     2    31   1
    33     5    32   1
    34     6    33   1
    35    11    34   1
    36    11    35   1
    37    13    36   1
    38    14    37   1
    39    14    38   1
    40    14    39   1
    41    17    40   1
    42    19    41   1
    43    20    42   1
    44    21    43   1
@<TRIPOS>SUBSTRUCTURE
     1  MOL      1

