@<TRIPOS>MOLECULE
1z95_ligand_014
    43    44
SMALL
GAST_HUCK
****
This file was generated by PARSER (from files_GN.cpp)

@<TRIPOS>ATOM
      1 C16        27.4469    5.8566    4.5957 C.ar        1 MOL      -0.0388
      2 C17        28.5186    5.5165    3.7519 C.ar        1 MOL      -0.0264
      3 C18        28.3559    5.5466    2.3538 C.ar        1 MOL       0.1325
      4 F18        29.3450    5.2150    1.5692 F           1 MOL      -0.1834
      5 C19        27.1387    5.9840    1.8039 C.ar        1 MOL      -0.0264
      6 C20        26.0876    6.3814    2.6490 C.ar        1 MOL      -0.0388
      7 C15        26.2124    6.2653    4.0528 C.ar        1 MOL       0.0840
      8 S14        24.8215    6.5060    5.0766 S.o2        1 MOL      -0.0030
      9 O14        25.2157    6.3092    6.6038 O.2         1 MOL      -0.1699
     10 O15        24.2719    7.9849    4.8719 O.2         1 MOL      -0.1699
     11 C13        23.5118    5.3131    4.6902 C.3         1 MOL       0.1063
     12 C11        23.6620    3.8751    5.3001 C.3         1 MOL       0.1678
     13 O11        23.5217    4.0181    6.7181 O.3         1 MOL      -0.3823
     14 C12        22.4713    2.9981    4.8375 C.3         1 MOL      -0.0271
     15 C10        24.9252    3.1893    4.9827 C.2         1 MOL       0.2588
     16 O10        25.6083    3.6048    4.0555 O.2         1 MOL      -0.3300
     17 N9         25.2548    2.0395    5.5732 N.am        1 MOL      -0.2188
     18 C1         26.3930    1.3118    5.3891 C.ar        1 MOL       0.1074
     19 C2         27.6653    1.9222    5.4089 C.ar        1 MOL       0.0010
     20 C6         26.3050   -0.0880    5.2963 C.ar        1 MOL      -0.0005
     21 C5         27.4694   -0.8610    5.1566 C.ar        1 MOL      -0.0119
     22 C4         28.7443   -0.2490    5.1730 C.ar        1 MOL       0.1068
     23 C8         29.7828   -1.0404    5.0789 C.1         1 MOL       0.1050
     24 N8         30.6926   -1.7373    5.0045 N.1         1 MOL      -0.3259
     25 C3         28.8647    1.1661    5.3187 C.ar        1 MOL       0.0666
     26 C7         30.2029    1.8463    5.3909 C.3         1 MOL       0.3787
     27 F7B        30.9395    1.3625    6.4457 F           1 MOL      -0.2186
     28 F7C        30.9172    1.6233    4.2399 F           1 MOL      -0.2186
     29 F7A        30.1543    3.2078    5.5656 F           1 MOL      -0.2186
     30 H1         27.5731    5.7799    5.6041 H           1 MOL       0.0626
     31 H2         29.4101    5.2329    4.1566 H           1 MOL       0.0604
     32 H3         27.0233    6.0275    0.7886 H           1 MOL       0.0604
     33 H4         25.2251    6.7308    2.2266 H           1 MOL       0.0626
     34 H5         23.4431    5.2533    3.6070 H           1 MOL       0.0518
     35 H6         22.5719    5.7465    5.0364 H           1 MOL       0.0518
     36 H7         23.4703    3.1079    7.0753 H           1 MOL       0.2079
     37 H8         22.5361    1.9974    5.2664 H           1 MOL       0.0244
     38 H9         22.4488    2.9055    3.7559 H           1 MOL       0.0244
     39 H10        21.5328    3.4506    5.1583 H           1 MOL       0.0244
     40 H11        24.5951    1.6421    6.1630 H           1 MOL       0.2319
     41 H12        27.6997    2.9331    5.5334 H           1 MOL       0.0781
     42 H13        25.3922   -0.5536    5.3203 H           1 MOL       0.0767
     43 H14        27.3686   -1.8774    5.0596 H           1 MOL       0.0766
@<TRIPOS>BOND
     1     1     2  ar
     2     1     7  ar
     3     2     3  ar
     4     3     4   1
     5     3     5  ar
     6     5     6  ar
     7     6     7  ar
     8     7     8   1
     9     8     9   2
    10     8    10   2
    11     8    11   1
    12    11    12   1
    13    12    13   1
    14    12    14   1
    15    12    15   1
    16    15    16   2
    17    15    17  am
    18    17    18   1
    19    18    19  ar
    20    18    20  ar
    21    19    25  ar
    22    20    21  ar
    23    21    22  ar
    24    22    23   1
    25    22    25  ar
    26    23    24   3
    27    25    26   1
    28    26    27   1
    29    26    28   1
    30    26    29   1
    31     1    30   1
    32     2    31   1
    33     5    32   1
    34     6    33   1
    35    11    34   1
    36    11    35   1
    37    13    36   1
    38    14    37   1
    39    14    38   1
    40    14    39   1
    41    17    40   1
    42    19    41   1
    43    20    42   1
    44    21    43   1
@<TRIPOS>SUBSTRUCTURE
     1  MOL      1

