@<TRIPOS>MOLECULE
1z95_ligand_056
    43    44
SMALL
GAST_HUCK
****
This file was generated by PARSER (from files_GN.cpp)

@<TRIPOS>ATOM
      1 C16        28.1110    3.0290    3.5995 C.ar        1 MOL      -0.0388
      2 C17        28.6306    1.8106    3.1207 C.ar        1 MOL      -0.0264
      3 C18        29.8241    1.2872    3.6606 C.ar        1 MOL       0.1325
      4 F18        30.3086    0.1643    3.2016 F           1 MOL      -0.1834
      5 C19        30.4807    1.9767    4.6945 C.ar        1 MOL      -0.0264
      6 C20        29.9457    3.1775    5.1973 C.ar        1 MOL      -0.0388
      7 C15        28.7647    3.7169    4.6464 C.ar        1 MOL       0.0840
      8 S14        28.0410    5.1527    5.3293 S.o2        1 MOL      -0.0030
      9 O14        26.8223    4.6437    6.2147 O.2         1 MOL      -0.1699
     10 O15        29.0457    5.8515    6.3504 O.2         1 MOL      -0.1699
     11 C13        27.5143    6.4254    4.1446 C.3         1 MOL       0.1063
     12 C11        25.9701    6.6414    3.9854 C.3         1 MOL       0.1678
     13 O11        25.4677    7.2671    5.1764 O.3         1 MOL      -0.3823
     14 C12        25.6672    7.6498    2.8405 C.3         1 MOL      -0.0271
     15 C10        25.2955    5.3739    3.7039 C.2         1 MOL       0.2588
     16 O10        25.7368    4.6722    2.8015 O.2         1 MOL      -0.3300
     17 N9         24.2300    5.0028    4.4082 N.am        1 MOL      -0.2188
     18 C1         23.5805    3.8048    4.4069 C.ar        1 MOL       0.1074
     19 C2         24.1245    2.6087    3.8907 C.ar        1 MOL       0.0010
     20 C6         22.3367    3.7600    5.0547 C.ar        1 MOL      -0.0005
     21 C5         21.6405    2.5432    5.1672 C.ar        1 MOL      -0.0119
     22 C4         22.1884    1.3492    4.6493 C.ar        1 MOL       0.1068
     23 C8         21.4777    0.2596    4.7995 C.1         1 MOL       0.1050
     24 N8         20.8370   -0.6871    4.9273 N.1         1 MOL      -0.3259
     25 C3         23.4468    1.3720    3.9753 C.ar        1 MOL       0.0666
     26 C7         24.0809    0.1476    3.3876 C.3         1 MOL       0.3787
     27 F7B        24.4389   -0.7083    4.3954 F           1 MOL      -0.2186
     28 F7C        23.2161   -0.4880    2.5327 F           1 MOL      -0.2186
     29 F7A        25.2237    0.3680    2.6529 F           1 MOL      -0.2186
     30 H1         27.2510    3.3949    3.1928 H           1 MOL       0.0626
     31 H2         28.1339    1.3095    2.3821 H           1 MOL       0.0604
     32 H3         31.3417    1.5982    5.0919 H           1 MOL       0.0604
     33 H4         30.4239    3.6427    5.9760 H           1 MOL       0.0626
     34 H5         27.9622    6.1815    3.1767 H           1 MOL       0.0518
     35 H6         27.9582    7.3686    4.4714 H           1 MOL       0.0518
     36 H7         25.6317    6.6396    5.9103 H           1 MOL       0.2079
     37 H8         24.5881    7.7809    2.7188 H           1 MOL       0.0244
     38 H9         26.0793    7.2982    1.8915 H           1 MOL       0.0244
     39 H10        26.1067    8.6235    3.0604 H           1 MOL       0.0244
     40 H11        23.8602    5.6705    5.0077 H           1 MOL       0.2319
     41 H12        25.0582    2.6408    3.4813 H           1 MOL       0.0781
     42 H13        21.9234    4.6114    5.4421 H           1 MOL       0.0767
     43 H14        20.7281    2.5567    5.6281 H           1 MOL       0.0766
@<TRIPOS>BOND
     1     1     2  ar
     2     1     7  ar
     3     2     3  ar
     4     3     4   1
     5     3     5  ar
     6     5     6  ar
     7     6     7  ar
     8     7     8   1
     9     8     9   2
    10     8    10   2
    11     8    11   1
    12    11    12   1
    13    12    13   1
    14    12    14   1
    15    12    15   1
    16    15    16   2
    17    15    17  am
    18    17    18   1
    19    18    19  ar
    20    18    20  ar
    21    19    25  ar
    22    20    21  ar
    23    21    22  ar
    24    22    23   1
    25    22    25  ar
    26    23    24   3
    27    25    26   1
    28    26    27   1
    29    26    28   1
    30    26    29   1
    31     1    30   1
    32     2    31   1
    33     5    32   1
    34     6    33   1
    35    11    34   1
    36    11    35   1
    37    13    36   1
    38    14    37   1
    39    14    38   1
    40    14    39   1
    41    17    40   1
    42    19    41   1
    43    20    42   1
    44    21    43   1
@<TRIPOS>SUBSTRUCTURE
     1  MOL      1

