@<TRIPOS>MOLECULE
1z95_ligand_054
    43    44
SMALL
GAST_HUCK
****
This file was generated by PARSER (from files_GN.cpp)

@<TRIPOS>ATOM
      1 C16        29.7363   -0.1042    7.1532 C.ar        1 MOL      -0.0388
      2 C17        29.2714    0.2177    5.8617 C.ar        1 MOL      -0.0264
      3 C18        29.9225    1.2053    5.0978 C.ar        1 MOL       0.1325
      4 F18        29.4993    1.5037    3.9022 F           1 MOL      -0.1834
      5 C19        31.0359    1.8749    5.6376 C.ar        1 MOL      -0.0264
      6 C20        31.4933    1.5700    6.9332 C.ar        1 MOL      -0.0388
      7 C15        30.8412    0.5842    7.7010 C.ar        1 MOL       0.0840
      8 S14        31.4080    0.2048    9.3103 S.o2        1 MOL      -0.0030
      9 O14        31.1100   -1.3079    9.7150 O.2         1 MOL      -0.1699
     10 O15        32.9885    0.3470    9.2730 O.2         1 MOL      -0.1699
     11 C13        30.8617    1.3531   10.6047 C.3         1 MOL       0.1063
     12 C11        29.4069    1.2137   11.1557 C.3         1 MOL       0.1678
     13 O11        29.1632    2.4027   11.9204 O.3         1 MOL      -0.3823
     14 C12        28.3357    1.2609   10.0191 C.3         1 MOL      -0.0271
     15 C10        29.2717    0.0634   12.0656 C.2         1 MOL       0.2588
     16 O10        28.9382   -1.0203   11.6096 O.2         1 MOL      -0.3300
     17 N9         29.5241    0.2362   13.3555 N.am        1 MOL      -0.2188
     18 C1         29.3430   -0.5688   14.4518 C.ar        1 MOL       0.1074
     19 C2         29.8673   -0.0800   15.6679 C.ar        1 MOL       0.0010
     20 C6         28.6269   -1.7851   14.4767 C.ar        1 MOL      -0.0005
     21 C5         28.4356   -2.4798   15.6787 C.ar        1 MOL      -0.0119
     22 C4         28.9114   -1.9498   16.8981 C.ar        1 MOL       0.1068
     23 C8         28.6302   -2.6333   17.9747 C.1         1 MOL       0.1050
     24 N8         28.3807   -3.2529   18.9099 N.1         1 MOL      -0.3259
     25 C3         29.6648   -0.7396   16.9108 C.ar        1 MOL       0.0666
     26 C7         30.2005   -0.1194   18.1618 C.3         1 MOL       0.3787
     27 F7B        29.1900    0.4574   18.8817 F           1 MOL      -0.2186
     28 F7C        30.8033   -1.0423   18.9778 F           1 MOL      -0.2186
     29 F7A        31.1490    0.8578   17.9679 F           1 MOL      -0.2186
     30 H1         29.2503   -0.8334    7.6934 H           1 MOL       0.0626
     31 H2         28.4581   -0.2705    5.4788 H           1 MOL       0.0604
     32 H3         31.5204    2.5898    5.0956 H           1 MOL       0.0604
     33 H4         32.3137    2.0645    7.3031 H           1 MOL       0.0626
     34 H5         30.9866    2.3710   10.2113 H           1 MOL       0.0518
     35 H6         31.5632    1.2495   11.4447 H           1 MOL       0.0518
     36 H7         28.2509    2.2939   12.2730 H           1 MOL       0.2079
     37 H8         27.3355    1.4030   10.4486 H           1 MOL       0.0244
     38 H9         28.3496    0.3439    9.4308 H           1 MOL       0.0244
     39 H10        28.5335    2.1027    9.3464 H           1 MOL       0.0244
     40 H11        29.8350    1.1304   13.5769 H           1 MOL       0.2319
     41 H12        30.3848    0.7983   15.6473 H           1 MOL       0.0781
     42 H13        28.2341   -2.1834   13.6288 H           1 MOL       0.0767
     43 H14        27.9229   -3.3625   15.6444 H           1 MOL       0.0766
@<TRIPOS>BOND
     1     1     2  ar
     2     1     7  ar
     3     2     3  ar
     4     3     4   1
     5     3     5  ar
     6     5     6  ar
     7     6     7  ar
     8     7     8   1
     9     8     9   2
    10     8    10   2
    11     8    11   1
    12    11    12   1
    13    12    13   1
    14    12    14   1
    15    12    15   1
    16    15    16   2
    17    15    17  am
    18    17    18   1
    19    18    19  ar
    20    18    20  ar
    21    19    25  ar
    22    20    21  ar
    23    21    22  ar
    24    22    23   1
    25    22    25  ar
    26    23    24   3
    27    25    26   1
    28    26    27   1
    29    26    28   1
    30    26    29   1
    31     1    30   1
    32     2    31   1
    33     5    32   1
    34     6    33   1
    35    11    34   1
    36    11    35   1
    37    13    36   1
    38    14    37   1
    39    14    38   1
    40    14    39   1
    41    17    40   1
    42    19    41   1
    43    20    42   1
    44    21    43   1
@<TRIPOS>SUBSTRUCTURE
     1  MOL      1

