@<TRIPOS>MOLECULE
1z95_ligand_011
    43    44
SMALL
GAST_HUCK
****
This file was generated by PARSER (from files_GN.cpp)

@<TRIPOS>ATOM
      1 C16        31.0556    1.3917   10.7540 C.ar        1 MOL      -0.0388
      2 C17        31.2822    1.7788   12.0857 C.ar        1 MOL      -0.0264
      3 C18        30.1997    1.9423   12.9674 C.ar        1 MOL       0.1325
      4 F18        30.4159    2.2893   14.2070 F           1 MOL      -0.1834
      5 C19        28.8862    1.7306   12.5103 C.ar        1 MOL      -0.0264
      6 C20        28.6552    1.3660   11.1711 C.ar        1 MOL      -0.0388
      7 C15        29.7406    1.2083   10.2810 C.ar        1 MOL       0.0840
      8 S14        29.4664    0.7331    8.6315 S.o2        1 MOL      -0.0030
      9 O14        29.3120   -0.8401    8.6741 O.2         1 MOL      -0.1699
     10 O15        28.1077    1.3847    8.1090 O.2         1 MOL      -0.1699
     11 C13        30.8435    1.2424    7.5646 C.3         1 MOL       0.1063
     12 C11        30.7692    0.7990    6.0670 C.3         1 MOL       0.1678
     13 O11        31.7941    1.5370    5.3920 O.3         1 MOL      -0.3823
     14 C12        31.1489   -0.7094    5.9141 C.3         1 MOL      -0.0271
     15 C10        29.4844    1.1647    5.4435 C.2         1 MOL       0.2588
     16 O10        28.8702    0.2942    4.8424 O.2         1 MOL      -0.3300
     17 N9         28.9581    2.3777    5.6301 N.am        1 MOL      -0.2188
     18 C1         27.7384    2.8805    5.2448 C.ar        1 MOL       0.1074
     19 C2         26.5811    2.1085    4.9914 C.ar        1 MOL       0.0010
     20 C6         27.6502    4.2757    5.0868 C.ar        1 MOL      -0.0005
     21 C5         26.4323    4.8872    4.7500 C.ar        1 MOL      -0.0119
     22 C4         25.2692    4.1074    4.5533 C.ar        1 MOL       0.1068
     23 C8         24.1572    4.7423    4.2642 C.1         1 MOL       0.1050
     24 N8         23.1873    5.2981    4.0134 N.1         1 MOL      -0.3259
     25 C3         25.3308    2.6889    4.6654 C.ar        1 MOL       0.0666
     26 C7         24.1326    1.8076    4.4642 C.3         1 MOL       0.3787
     27 F7B        23.1721    2.0905    5.4058 F           1 MOL      -0.2186
     28 F7C        23.6022    1.9979    3.2131 F           1 MOL      -0.2186
     29 F7A        24.3693    0.4558    4.5549 F           1 MOL      -0.2186
     30 H1         31.8608    1.2432   10.1436 H           1 MOL       0.0626
     31 H2         32.2387    1.9342   12.4049 H           1 MOL       0.0604
     32 H3         28.0942    1.8425   13.1485 H           1 MOL       0.0604
     33 H4         27.6940    1.2089   10.8578 H           1 MOL       0.0626
     34 H5         31.7664    0.8529    7.9997 H           1 MOL       0.0518
     35 H6         30.9012    2.3333    7.6160 H           1 MOL       0.0518
     36 H7         31.9565    1.0463    4.5600 H           1 MOL       0.2079
     37 H8         31.1972   -0.9861    4.8609 H           1 MOL       0.0244
     38 H9         30.3966   -1.3403    6.3814 H           1 MOL       0.0244
     39 H10        32.1168   -0.9128    6.3742 H           1 MOL       0.0244
     40 H11        29.4882    2.9708    6.1891 H           1 MOL       0.2319
     41 H12        26.6448    1.0966    5.0376 H           1 MOL       0.0781
     42 H13        28.4705    4.8643    5.2389 H           1 MOL       0.0767
     43 H14        26.4048    5.9076    4.6596 H           1 MOL       0.0766
@<TRIPOS>BOND
     1     1     2  ar
     2     1     7  ar
     3     2     3  ar
     4     3     4   1
     5     3     5  ar
     6     5     6  ar
     7     6     7  ar
     8     7     8   1
     9     8     9   2
    10     8    10   2
    11     8    11   1
    12    11    12   1
    13    12    13   1
    14    12    14   1
    15    12    15   1
    16    15    16   2
    17    15    17  am
    18    17    18   1
    19    18    19  ar
    20    18    20  ar
    21    19    25  ar
    22    20    21  ar
    23    21    22  ar
    24    22    23   1
    25    22    25  ar
    26    23    24   3
    27    25    26   1
    28    26    27   1
    29    26    28   1
    30    26    29   1
    31     1    30   1
    32     2    31   1
    33     5    32   1
    34     6    33   1
    35    11    34   1
    36    11    35   1
    37    13    36   1
    38    14    37   1
    39    14    38   1
    40    14    39   1
    41    17    40   1
    42    19    41   1
    43    20    42   1
    44    21    43   1
@<TRIPOS>SUBSTRUCTURE
     1  MOL      1

