@<TRIPOS>MOLECULE
1z95_ligand_038
    43    44
SMALL
GAST_HUCK
****
This file was generated by PARSER (from files_GN.cpp)

@<TRIPOS>ATOM
      1 C16        27.6165    0.6968    4.7810 C.ar        1 MOL      -0.0388
      2 C17        27.3559   -0.4077    3.9424 C.ar        1 MOL      -0.0264
      3 C18        28.2748   -0.7643    2.9385 C.ar        1 MOL       0.1325
      4 F18        28.0370   -1.7850    2.1579 F           1 MOL      -0.1834
      5 C19        29.4740   -0.0341    2.7945 C.ar        1 MOL      -0.0264
      6 C20        29.7322    1.0614    3.6341 C.ar        1 MOL      -0.0388
      7 C15        28.7924    1.4543    4.6125 C.ar        1 MOL       0.0840
      8 S14        29.1063    2.8494    5.6122 S.o2        1 MOL      -0.0030
      9 O14        29.0997    2.3570    7.1244 O.2         1 MOL      -0.1699
     10 O15        30.5900    3.3896    5.4194 O.2         1 MOL      -0.1699
     11 C13        27.9398    4.2331    5.5525 C.3         1 MOL       0.1063
     12 C11        27.3868    4.7634    4.1811 C.3         1 MOL       0.1678
     13 O11        26.9408    6.1102    4.4315 O.3         1 MOL      -0.3823
     14 C12        28.4797    4.9120    3.0820 C.3         1 MOL      -0.0271
     15 C10        26.2343    3.9588    3.7429 C.2         1 MOL       0.2588
     16 O10        25.0971    4.3825    3.9348 O.2         1 MOL      -0.3300
     17 N9         26.4040    2.7812    3.1587 N.am        1 MOL      -0.2188
     18 C1         25.4235    1.9245    2.7503 C.ar        1 MOL       0.1074
     19 C2         25.3157    1.6489    1.3766 C.ar        1 MOL       0.0010
     20 C6         24.5446    1.2860    3.6484 C.ar        1 MOL      -0.0005
     21 C5         23.6294    0.3364    3.1767 C.ar        1 MOL      -0.0119
     22 C4         23.5329    0.0450    1.7965 C.ar        1 MOL       0.1068
     23 C8         22.6960   -0.8848    1.4328 C.1         1 MOL       0.1050
     24 N8         21.9583   -1.7158    1.1317 N.1         1 MOL      -0.3259
     25 C3         24.3465    0.7491    0.8585 C.ar        1 MOL       0.0666
     26 C7         24.1749    0.6019   -0.6260 C.3         1 MOL       0.3787
     27 F7B        24.3738   -0.6942   -1.0289 F           1 MOL      -0.2186
     28 F7C        22.9045    0.9696   -0.9984 F           1 MOL      -0.2186
     29 F7A        25.0268    1.3784   -1.3764 F           1 MOL      -0.2186
     30 H1         26.9404    0.9373    5.5079 H           1 MOL       0.0626
     31 H2         26.4953   -0.9506    4.0646 H           1 MOL       0.0604
     32 H3         30.1668   -0.3158    2.0946 H           1 MOL       0.0604
     33 H4         30.6197    1.5593    3.5318 H           1 MOL       0.0626
     34 H5         28.4611    5.0516    6.0500 H           1 MOL       0.0518
     35 H6         27.0998    3.9605    6.1928 H           1 MOL       0.0518
     36 H7         26.5401    6.4305    3.5916 H           1 MOL       0.2079
     37 H8         28.0717    5.3857    2.1835 H           1 MOL       0.0244
     38 H9         28.8881    3.9428    2.7964 H           1 MOL       0.0244
     39 H10        29.3005    5.5342    3.4522 H           1 MOL       0.0244
     40 H11        27.3093    2.5381    2.9066 H           1 MOL       0.2319
     41 H12        25.9258    2.1658    0.7411 H           1 MOL       0.0781
     42 H13        24.5917    1.4872    4.6511 H           1 MOL       0.0767
     43 H14        23.0340   -0.1423    3.8551 H           1 MOL       0.0766
@<TRIPOS>BOND
     1     1     2  ar
     2     1     7  ar
     3     2     3  ar
     4     3     4   1
     5     3     5  ar
     6     5     6  ar
     7     6     7  ar
     8     7     8   1
     9     8     9   2
    10     8    10   2
    11     8    11   1
    12    11    12   1
    13    12    13   1
    14    12    14   1
    15    12    15   1
    16    15    16   2
    17    15    17  am
    18    17    18   1
    19    18    19  ar
    20    18    20  ar
    21    19    25  ar
    22    20    21  ar
    23    21    22  ar
    24    22    23   1
    25    22    25  ar
    26    23    24   3
    27    25    26   1
    28    26    27   1
    29    26    28   1
    30    26    29   1
    31     1    30   1
    32     2    31   1
    33     5    32   1
    34     6    33   1
    35    11    34   1
    36    11    35   1
    37    13    36   1
    38    14    37   1
    39    14    38   1
    40    14    39   1
    41    17    40   1
    42    19    41   1
    43    20    42   1
    44    21    43   1
@<TRIPOS>SUBSTRUCTURE
     1  MOL      1

