@<TRIPOS>MOLECULE
1z95_ligand_006
    43    44
SMALL
GAST_HUCK
****
This file was generated by PARSER (from files_GN.cpp)

@<TRIPOS>ATOM
      1 C16        30.6093   -1.5274    4.5705 C.ar        1 MOL      -0.0388
      2 C17        29.7428   -1.8573    3.5130 C.ar        1 MOL      -0.0264
      3 C18        29.0642   -0.8410    2.8174 C.ar        1 MOL       0.1325
      4 F18        28.2486   -1.1452    1.8471 F           1 MOL      -0.1834
      5 C19        29.2691    0.5081    3.1674 C.ar        1 MOL      -0.0264
      6 C20        30.1516    0.8401    4.2109 C.ar        1 MOL      -0.0388
      7 C15        30.8063   -0.1771    4.9393 C.ar        1 MOL       0.0840
      8 S14        31.8725    0.2299    6.2616 S.o2        1 MOL      -0.0030
      9 O14        32.3613   -1.0834    7.0084 O.2         1 MOL      -0.1699
     10 O15        33.2119    0.8553    5.6692 O.2         1 MOL      -0.1699
     11 C13        31.2291    1.3835    7.5029 C.3         1 MOL       0.1063
     12 C11        29.6848    1.3454    7.7946 C.3         1 MOL       0.1678
     13 O11        29.2306   -0.0085    7.6571 O.3         1 MOL      -0.3823
     14 C12        29.4098    1.7553    9.2764 C.3         1 MOL      -0.0271
     15 C10        28.9032    2.2479    6.9322 C.2         1 MOL       0.2588
     16 O10        29.3283    3.3829    6.7801 O.2         1 MOL      -0.3300
     17 N9         27.7073    1.8937    6.4608 N.am        1 MOL      -0.2188
     18 C1         26.7159    2.6000    5.8113 C.ar        1 MOL       0.1074
     19 C2         26.6677    4.0005    5.5962 C.ar        1 MOL       0.0010
     20 C6         25.6090    1.8362    5.3825 C.ar        1 MOL      -0.0005
     21 C5         24.5025    2.4431    4.7637 C.ar        1 MOL      -0.0119
     22 C4         24.4687    3.8400    4.5637 C.ar        1 MOL       0.1068
     23 C8         23.3934    4.3394    4.0124 C.1         1 MOL       0.1050
     24 N8         22.4456    4.7829    3.5438 N.1         1 MOL      -0.3259
     25 C3         25.5660    4.6501    4.9745 C.ar        1 MOL       0.0666
     26 C7         25.5734    6.1389    4.7762 C.3         1 MOL       0.3787
     27 F7B        25.4605    6.4485    3.4408 F           1 MOL      -0.2186
     28 F7C        24.5155    6.6999    5.4483 F           1 MOL      -0.2186
     29 F7A        26.6957    6.7954    5.2259 F           1 MOL      -0.2186
     30 H1         31.0906   -2.2817    5.0684 H           1 MOL       0.0626
     31 H2         29.6039   -2.8385    3.2611 H           1 MOL       0.0604
     32 H3         28.7709    1.2480    2.6708 H           1 MOL       0.0604
     33 H4         30.3033    1.8247    4.4449 H           1 MOL       0.0626
     34 H5         31.5406    2.3883    7.2150 H           1 MOL       0.0518
     35 H6         31.7749    1.1366    8.4147 H           1 MOL       0.0518
     36 H7         29.7996   -0.5370    8.2602 H           1 MOL       0.2079
     37 H8         28.3434    1.6965    9.5084 H           1 MOL       0.0244
     38 H9         29.7489    2.7761    9.4729 H           1 MOL       0.0244
     39 H10        29.9312    1.0914    9.9656 H           1 MOL       0.0244
     40 H11        27.4825    0.9646    6.6209 H           1 MOL       0.2319
     41 H12        27.4445    4.5731    5.9063 H           1 MOL       0.0781
     42 H13        25.5874    0.8222    5.5316 H           1 MOL       0.0767
     43 H14        23.7136    1.8448    4.4814 H           1 MOL       0.0766
@<TRIPOS>BOND
     1     1     2  ar
     2     1     7  ar
     3     2     3  ar
     4     3     4   1
     5     3     5  ar
     6     5     6  ar
     7     6     7  ar
     8     7     8   1
     9     8     9   2
    10     8    10   2
    11     8    11   1
    12    11    12   1
    13    12    13   1
    14    12    14   1
    15    12    15   1
    16    15    16   2
    17    15    17  am
    18    17    18   1
    19    18    19  ar
    20    18    20  ar
    21    19    25  ar
    22    20    21  ar
    23    21    22  ar
    24    22    23   1
    25    22    25  ar
    26    23    24   3
    27    25    26   1
    28    26    27   1
    29    26    28   1
    30    26    29   1
    31     1    30   1
    32     2    31   1
    33     5    32   1
    34     6    33   1
    35    11    34   1
    36    11    35   1
    37    13    36   1
    38    14    37   1
    39    14    38   1
    40    14    39   1
    41    17    40   1
    42    19    41   1
    43    20    42   1
    44    21    43   1
@<TRIPOS>SUBSTRUCTURE
     1  MOL      1

