@<TRIPOS>MOLECULE
1zea_ligand_086
   129   131
SMALL
GAST_HUCK
****
This file was generated by PARSER (from files_GN.cpp)

@<TRIPOS>ATOM
      1 N          49.3458   56.7588   82.4024 N.4         1 DVA       0.2381
      2 CA         48.2046   55.9706   81.8996 C.3         1 DVA       0.0675
      3 CB         46.9535   56.1130   82.8386 C.3         1 DVA       0.0139
      4 CG1        46.4996   57.6025   82.9603 C.3         1 DVA      -0.0553
      5 CG2        45.7474   55.2405   82.3826 C.3         1 DVA      -0.0553
      6 C          48.6956   54.5985   81.7055 C.2         1 DVA       0.2295
      7 O          48.6417   53.8745   82.6950 O.2         1 DVA      -0.3905
      8 N          49.2711   54.1276   80.5822 N.am        1 DVA      -0.2471
      9 CA         49.7178   52.7633   80.4296 C.3         1 DVA       0.1339
     10 CB         50.6988   52.8015   79.2354 C.3         1 DVA      -0.0104
     11 CG         50.2190   53.9878   78.3929 C.3         1 DVA      -0.0281
     12 CD         49.5606   54.9249   79.4189 C.3         1 DVA       0.0371
     13 C          48.5949   51.8543   80.2202 C.2         1 DVA       0.2039
     14 O          47.8324   52.0569   79.2798 O.2         1 DVA      -0.3944
     15 N          48.4257   50.8196   81.0285 N.am        1 DVA      -0.2664
     16 CA         47.3878   49.8342   80.9748 C.3         1 DVA       0.1201
     17 C          46.7985   49.6593   82.2888 C.2         1 DVA       0.2008
     18 O          47.4200   49.0124   83.1307 O.2         1 DVA      -0.3947
     19 N          45.6107   50.1800   82.5765 N.am        1 DVA      -0.2618
     20 CA         44.9282   50.0810   83.8373 C.3         1 DVA       0.1539
     21 C          43.6652   50.7994   83.7583 C.2         1 DVA       0.2062
     22 O          42.9066   50.5719   82.8256 O.2         1 DVA      -0.3943
     23 CB         44.7226   48.6023   84.2796 C.3         1 DVA       0.0843
     24 OG         44.1157   47.8039   83.2613 O.3         1 DVA      -0.3903
     25 N          43.3385   51.6702   84.7042 N.am        1 DVA      -0.2635
     26 CA         42.1043   52.3898   84.8542 C.3         1 DVA       0.1330
     27 C          42.2970   53.2384   86.0288 C.2         1 DVA       0.2041
     28 O          42.8415   54.3263   85.8781 O.2         1 DVA      -0.3944
     29 CB         41.7220   53.2030   83.5739 C.3         1 DVA       0.0045
     30 CG         40.6141   54.2960   83.7627 C.3         1 DVA       0.0412
     31 CD         39.3631   54.0571   83.0570 C.2         1 DVA       0.1737
     32 OE1        39.2806   54.2533   81.8522 O.2         1 DVA      -0.3973
     33 NE2        38.2619   53.7261   83.6946 N.am        1 DVA      -0.3009
     34 N          41.9821   52.7985   87.2427 N.am        1 DVA      -0.2625
     35 CA         42.1019   53.5472   88.4689 C.3         1 DVA       0.1369
     36 C          41.2925   54.7687   88.4410 C.2         1 DVA       0.2055
     37 O          40.2973   54.8485   87.7338 O.2         1 DVA      -0.3942
     38 CB         41.7762   52.6458   89.7127 C.3         1 DVA       0.0145
     39 CG         42.9792   52.2303   90.4691 C.2         1 DVA      -0.0027
     40 ND1        43.2185   52.5187   91.7602 N.2         1 DVA      -0.3252
     41 CD2        44.0682   51.5072   89.9922 C.2         1 DVA       0.0291
     42 CE1        44.4196   51.9987   92.0737 C.2         1 DVA       0.0907
     43 NE2        44.9375   51.3853   91.0024 N.pl3       1 DVA      -0.2752
     44 N          41.6413   55.7729   89.2299 N.am        1 DVA      -0.2620
     45 CA         41.0480   57.0824   89.3118 C.3         1 DVA       0.1390
     46 C          41.1791   57.5576   90.6880 C.2         1 DVA       0.2058
     47 O          42.2874   57.6869   91.1884 O.2         1 DVA      -0.3942
     48 CB         41.6452   58.0871   88.2667 C.3         1 DVA       0.0163
     49 CG         42.9995   57.7410   87.7402 C.ar        1 DVA      -0.0493
     50 CD1        43.1419   57.1123   86.4801 C.ar        1 DVA      -0.0685
     51 CD2        44.1607   57.9948   88.5054 C.ar        1 DVA      -0.0685
     52 CE1        44.4059   56.7254   86.0071 C.ar        1 DVA      -0.0398
     53 CE2        45.4318   57.6178   88.0265 C.ar        1 DVA      -0.0398
     54 CZ         45.5545   56.9756   86.7814 C.ar        1 DVA       0.0805
     55 OH         46.7707   56.5797   86.3249 O.3         1 DVA      -0.3376
     56 N          40.0797   57.8279   91.3999 N.am        1 DVA      -0.2620
     57 CA         39.9434   58.1460   92.8027 C.3         1 DVA       0.1423
     58 C          39.7645   56.9364   93.6011 C.2         1 DVA       0.2051
     59 O          38.8733   56.9157   94.4373 O.2         1 DVA      -0.3943
     60 CB         41.0343   59.0924   93.3955 C.3         1 DVA       0.0406
     61 CG         41.0931   60.3943   92.6954 C.2         1 DVA       0.0393
     62 OD1        40.0723   61.2788   92.8181 O.co2       1 DVA      -0.5688
     63 OD2        42.1327   60.6963   91.8750 O.co2       1 DVA      -0.5688
     64 N          40.5553   55.8808   93.4332 N.am        1 DVA      -0.2671
     65 CA         40.4674   54.5990   94.0805 C.3         1 DVA       0.1173
     66 C          40.5925   54.7051   95.5503 C.2         1 DVA       0.0623
     67 O          41.7194   55.2394   96.0846 O.co2       1 DVA      -0.5665
     68 OXT        39.6060   54.3392   96.3977 O.co2       1 DVA      -0.5665
     69 CB         39.2482   53.7629   93.5796 C.3         1 DVA       0.0789
     70 OG         37.9967   54.4260   93.7185 O.3         1 DVA      -0.3910
     71 H1         49.1025   57.7509   82.4258 H           1 DVA       0.2015
     72 H2         50.1482   56.6328   81.7806 H           1 DVA       0.2015
     73 H3         49.5961   56.4475   83.3434 H           1 DVA       0.2015
     74 H4         47.9238   56.4132   80.9451 H           1 DVA       0.1101
     75 H5         47.2322   55.7830   83.8463 H           1 DVA       0.0376
     76 H6         45.6183   57.6938   83.6029 H           1 DVA       0.0236
     77 H7         46.2471   58.0107   81.9748 H           1 DVA       0.0236
     78 H8         47.2906   58.2180   83.4016 H           1 DVA       0.0236
     79 H9         46.0230   54.1848   82.3531 H           1 DVA       0.0236
     80 H10        45.4064   55.5432   81.3881 H           1 DVA       0.0236
     81 H11        44.9162   55.3430   83.0861 H           1 DVA       0.0236
     82 H12        50.2973   52.4574   81.3086 H           1 DVA       0.0802
     83 H13        50.7176   51.8721   78.6575 H           1 DVA       0.0313
     84 H14        51.7153   53.0015   79.5924 H           1 DVA       0.0313
     85 H15        49.4821   53.6503   77.6605 H           1 DVA       0.0287
     86 H16        51.0462   54.4726   77.8686 H           1 DVA       0.0287
     87 H17        50.2470   55.7353   79.6854 H           1 DVA       0.0524
     88 H18        48.6470   55.3473   78.9903 H           1 DVA       0.0524
     89 H19        49.0894   50.6928   81.7245 H           1 DVA       0.1881
     90 H20        47.8274   48.8821   80.6734 H           1 DVA       0.0763
     91 H21        46.6157   50.0835   80.2398 H           1 DVA       0.0763
     92 H22        45.1701   50.6995   81.8790 H           1 DVA       0.1884
     93 H23        45.5569   50.5572   84.5937 H           1 DVA       0.0823
     94 H24        44.0946   48.5598   85.1782 H           1 DVA       0.0606
     95 H25        45.6869   48.1592   84.5316 H           1 DVA       0.0606
     96 H26        44.6490   47.9509   82.4485 H           1 DVA       0.2097
     97 H27        43.9931   51.7869   85.4113 H           1 DVA       0.1883
     98 H28        41.3045   51.6685   85.0477 H           1 DVA       0.0801
     99 H29        41.4141   52.5048   82.7910 H           1 DVA       0.0337
    100 H30        42.6238   53.6990   83.2073 H           1 DVA       0.0337
    101 H31        41.0018   55.2463   83.3908 H           1 DVA       0.0504
    102 H32        40.4048   54.4536   84.8268 H           1 DVA       0.0504
    103 H33        37.4269   53.6297   83.2068 H           1 DVA       0.1814
    104 H34        38.2843   53.5483   84.6491 H           1 DVA       0.1814
    105 H35        41.6813   51.8738   87.3020 H           1 DVA       0.1885
    106 H36        43.1492   53.8619   88.5393 H           1 DVA       0.0817
    107 H37        41.2472   51.7402   89.4078 H           1 DVA       0.0420
    108 H38        41.1140   53.1661   90.4103 H           1 DVA       0.0420
    109 H39        44.1951   51.1464   89.0447 H           1 DVA       0.0729
    110 H40        44.8683   52.0665   92.9864 H           1 DVA       0.1199
    111 H41        45.7978   50.9377   90.9650 H           1 DVA       0.2361
    112 H42        42.4424   55.6386   89.7611 H           1 DVA       0.1885
    113 H43        39.9809   56.9940   89.0939 H           1 DVA       0.0821
    114 H44        41.6813   59.1068   88.6710 H           1 DVA       0.0453
    115 H45        40.9476   58.1398   87.4202 H           1 DVA       0.0453
    116 H46        42.3199   56.9080   85.9014 H           1 DVA       0.0530
    117 H47        44.0916   58.4537   89.4119 H           1 DVA       0.0530
    118 H48        44.4890   56.2483   85.1087 H           1 DVA       0.0525
    119 H49        46.2631   57.8050   88.5910 H           1 DVA       0.0525
    120 H50        47.2024   57.4129   86.0201 H           1 DVA       0.2458
    121 H51        39.2329   57.7854   90.9094 H           1 DVA       0.1884
    122 H52        38.9996   58.7130   92.8575 H           1 DVA       0.0819
    123 H53        42.0164   58.6135   93.3505 H           1 DVA       0.0478
    124 H54        40.8115   59.2920   94.4519 H           1 DVA       0.0478
    125 H55        41.2720   55.9719   92.7926 H           1 DVA       0.1876
    126 H56        41.3511   54.0387   93.7502 H           1 DVA       0.0749
    127 H57        39.1963   52.8261   94.1400 H           1 DVA       0.0599
    128 H58        39.3850   53.5132   92.5257 H           1 DVA       0.0599
    129 H59        37.9397   55.0241   92.9418 H           1 DVA       0.2096
@<TRIPOS>BOND
     1     1     2   1
     2     2     3   1
     3     2     6   1
     4     3     4   1
     5     3     5   1
     6     6     7   2
     7     6     8  am
     8     8     9   1
     9     8    12   1
    10     9    10   1
    11     9    13   1
    12    10    11   1
    13    11    12   1
    14    13    14   2
    15    13    15  am
    16    15    16   1
    17    16    17   1
    18    17    18   2
    19    17    19  am
    20    19    20   1
    21    20    21   1
    22    20    23   1
    23    21    22   2
    24    21    25  am
    25    23    24   1
    26    25    26   1
    27    26    27   1
    28    26    29   1
    29    27    28   2
    30    27    34  am
    31    29    30   1
    32    30    31   1
    33    31    32   2
    34    31    33  am
    35    34    35   1
    36    35    36   1
    37    35    38   1
    38    36    37   2
    39    36    44  am
    40    38    39   1
    41    39    40   1
    42    39    41   2
    43    40    42   2
    44    41    43   1
    45    42    43   1
    46    44    45   1
    47    45    46   1
    48    45    48   1
    49    46    47   2
    50    46    56  am
    51    48    49   1
    52    49    50  ar
    53    49    51  ar
    54    50    52  ar
    55    51    53  ar
    56    52    54  ar
    57    53    54  ar
    58    54    55   1
    59    56    57   1
    60    57    58   1
    61    57    60   1
    62    58    59   2
    63    58    64  am
    64    60    61   1
    65    61    62  ar
    66    61    63  ar
    67    64    65   1
    68    65    66   1
    69    65    69   1
    70    66    67  ar
    71    66    68  ar
    72    69    70   1
    73     1    71   1
    74     1    72   1
    75     1    73   1
    76     2    74   1
    77     3    75   1
    78     4    76   1
    79     4    77   1
    80     4    78   1
    81     5    79   1
    82     5    80   1
    83     5    81   1
    84     9    82   1
    85    10    83   1
    86    10    84   1
    87    11    85   1
    88    11    86   1
    89    12    87   1
    90    12    88   1
    91    15    89   1
    92    16    90   1
    93    16    91   1
    94    19    92   1
    95    20    93   1
    96    23    94   1
    97    23    95   1
    98    24    96   1
    99    25    97   1
   100    26    98   1
   101    29    99   1
   102    29   100   1
   103    30   101   1
   104    30   102   1
   105    33   103   1
   106    33   104   1
   107    34   105   1
   108    35   106   1
   109    38   107   1
   110    38   108   1
   111    41   109   1
   112    42   110   1
   113    43   111   1
   114    44   112   1
   115    45   113   1
   116    48   114   1
   117    48   115   1
   118    50   116   1
   119    51   117   1
   120    52   118   1
   121    53   119   1
   122    55   120   1
   123    56   121   1
   124    57   122   1
   125    60   123   1
   126    60   124   1
   127    64   125   1
   128    65   126   1
   129    69   127   1
   130    69   128   1
   131    70   129   1
@<TRIPOS>SUBSTRUCTURE
     1  DVA      2

