@<TRIPOS>MOLECULE
1zea_ligand_071
   129   131
SMALL
GAST_HUCK
****
This file was generated by PARSER (from files_GN.cpp)

@<TRIPOS>ATOM
      1 N          41.2635   51.3459   96.1739 N.4         1 DVA       0.2381
      2 CA         39.9733   52.0689   96.2330 C.3         1 DVA       0.0675
      3 CB         39.1595   51.8460   97.5804 C.3         1 DVA       0.0139
      4 CG1        37.6213   51.6811   97.4067 C.3         1 DVA      -0.0553
      5 CG2        39.7168   50.7432   98.5323 C.3         1 DVA      -0.0553
      6 C          39.2509   51.9135   94.9482 C.2         1 DVA       0.2295
      7 O          38.9136   52.9720   94.4307 O.2         1 DVA      -0.3905
      8 N          38.9015   50.7646   94.3420 N.am        1 DVA      -0.2471
      9 CA         38.1624   50.7189   93.0896 C.3         1 DVA       0.1339
     10 CB         37.8977   49.2153   92.8128 C.3         1 DVA      -0.0104
     11 CG         38.1281   48.5397   94.1746 C.3         1 DVA      -0.0281
     12 CD         39.1476   49.4548   94.8589 C.3         1 DVA       0.0371
     13 C          38.8396   51.3596   91.9602 C.2         1 DVA       0.2039
     14 O          39.9507   50.9556   91.6428 O.2         1 DVA      -0.3944
     15 N          38.2583   52.3540   91.3009 N.am        1 DVA      -0.2664
     16 CA         38.7280   52.9650   90.0927 C.3         1 DVA       0.1201
     17 C          40.1289   53.3481   90.1284 C.2         1 DVA       0.2008
     18 O          40.9564   52.6185   89.5900 O.2         1 DVA      -0.3947
     19 N          40.4833   54.4426   90.7904 N.am        1 DVA      -0.2618
     20 CA         41.8208   54.8760   91.0807 C.3         1 DVA       0.1539
     21 C          42.2184   55.9480   90.1770 C.2         1 DVA       0.2062
     22 O          42.1176   57.1238   90.5103 O.2         1 DVA      -0.3943
     23 CB         41.8928   55.2339   92.5961 C.3         1 DVA       0.0843
     24 OG         41.0801   56.3639   92.9116 O.3         1 DVA      -0.3903
     25 N          42.7323   55.6393   88.9866 N.am        1 DVA      -0.2635
     26 CA         43.1223   56.5656   87.9563 C.3         1 DVA       0.1330
     27 C          43.5566   55.8656   86.7450 C.2         1 DVA       0.2041
     28 O          44.6511   56.1429   86.2701 O.2         1 DVA      -0.3944
     29 CB         42.0179   57.6206   87.6337 C.3         1 DVA       0.0045
     30 CG         40.5667   57.0683   87.5561 C.3         1 DVA       0.0412
     31 CD         39.6156   58.1415   87.3873 C.2         1 DVA       0.1737
     32 OE1        39.5545   58.7395   86.3236 O.2         1 DVA      -0.3973
     33 NE2        38.8669   58.5527   88.3868 N.am        1 DVA      -0.3009
     34 N          42.7588   54.9887   86.1402 N.am        1 DVA      -0.2625
     35 CA         42.9658   54.3576   84.8686 C.3         1 DVA       0.1369
     36 C          43.5849   53.0635   85.1110 C.2         1 DVA       0.2055
     37 O          43.1653   52.0484   84.5723 O.2         1 DVA      -0.3942
     38 CB         41.5944   54.3335   84.1304 C.3         1 DVA       0.0145
     39 CG         41.6175   54.1251   82.6671 C.2         1 DVA      -0.0027
     40 ND1        40.5091   53.8314   81.9593 N.2         1 DVA      -0.3252
     41 CD2        42.6725   54.2163   81.7591 C.2         1 DVA       0.0291
     42 CE1        40.8624   53.7453   80.6646 C.2         1 DVA       0.0907
     43 NE2        42.1757   53.9839   80.5400 N.pl3       1 DVA      -0.2752
     44 N          44.6354   53.0151   85.9269 N.am        1 DVA      -0.2620
     45 CA         45.3644   51.8493   86.3454 C.3         1 DVA       0.1390
     46 C          45.6774   50.9673   85.2278 C.2         1 DVA       0.2058
     47 O          45.6151   49.7645   85.4334 O.2         1 DVA      -0.3942
     48 CB         46.6562   52.2810   87.1139 C.3         1 DVA       0.0163
     49 CG         47.4115   51.1263   87.6825 C.ar        1 DVA      -0.0493
     50 CD1        48.1720   50.2797   86.8391 C.ar        1 DVA      -0.0685
     51 CD2        47.3344   50.8222   89.0611 C.ar        1 DVA      -0.0685
     52 CE1        48.8109   49.1421   87.3591 C.ar        1 DVA      -0.0398
     53 CE2        47.9896   49.6942   89.5834 C.ar        1 DVA      -0.0398
     54 CZ         48.7132   48.8427   88.7287 C.ar        1 DVA       0.0805
     55 OH         49.2824   47.7170   89.2184 O.3         1 DVA      -0.3376
     56 N          46.0841   51.4876   84.0683 N.am        1 DVA      -0.2620
     57 CA         46.4931   50.8754   82.8244 C.3         1 DVA       0.1423
     58 C          47.8731   51.2417   82.4843 C.2         1 DVA       0.2051
     59 O          48.2615   50.9741   81.3526 O.2         1 DVA      -0.3943
     60 CB         46.2479   49.3343   82.6687 C.3         1 DVA       0.0406
     61 CG         44.8250   48.9174   82.6395 C.2         1 DVA       0.0393
     62 OD1        43.8160   49.7684   82.3240 O.co2       1 DVA      -0.5688
     63 OD2        44.4893   47.6399   82.9357 O.co2       1 DVA      -0.5688
     64 N          48.6784   51.9248   83.3041 N.am        1 DVA      -0.2671
     65 CA         50.0009   52.4084   83.0057 C.3         1 DVA       0.1173
     66 C          49.9394   53.8456   82.6580 C.2         1 DVA       0.0623
     67 O          50.3233   54.2770   81.4333 O.co2       1 DVA      -0.5665
     68 OXT        49.3713   54.7411   83.4995 O.co2       1 DVA      -0.5665
     69 CB         50.9963   52.1160   84.1669 C.3         1 DVA       0.0789
     70 OG         51.6367   53.2756   84.7128 O.3         1 DVA      -0.3910
     71 H1         41.8699   51.6669   96.9387 H           1 DVA       0.2015
     72 H2         41.7332   51.5383   95.2773 H           1 DVA       0.2015
     73 H3         41.1150   50.3381   96.2721 H           1 DVA       0.2015
     74 H4         40.3226   53.1127   96.2747 H           1 DVA       0.1101
     75 H5         39.2682   52.7779   98.1561 H           1 DVA       0.0376
     76 H6         37.1254   51.6832   98.3779 H           1 DVA       0.0236
     77 H7         37.3849   50.7443   96.9024 H           1 DVA       0.0236
     78 H8         37.2110   52.5079   96.8211 H           1 DVA       0.0236
     79 H9         40.7574   50.9499   98.7793 H           1 DVA       0.0236
     80 H10        39.6510   49.7612   98.0727 H           1 DVA       0.0236
     81 H11        39.1495   50.7286   99.4623 H           1 DVA       0.0236
     82 H12        37.1886   51.1946   93.2719 H           1 DVA       0.0802
     83 H13        38.6015   48.7857   92.0964 H           1 DVA       0.0313
     84 H14        36.8829   49.0312   92.4467 H           1 DVA       0.0313
     85 H15        38.5040   47.5143   94.0641 H           1 DVA       0.0287
     86 H16        37.1872   48.5167   94.7410 H           1 DVA       0.0287
     87 H17        39.0012   49.3850   95.9315 H           1 DVA       0.0524
     88 H18        40.1626   49.1459   94.6092 H           1 DVA       0.0524
     89 H19        37.4093   52.6705   91.6375 H           1 DVA       0.1881
     90 H20        38.1241   53.8579   89.9033 H           1 DVA       0.0763
     91 H21        38.5309   52.2768   89.2600 H           1 DVA       0.0763
     92 H22        39.7549   54.9693   91.1504 H           1 DVA       0.1884
     93 H23        42.5296   54.0498   90.9417 H           1 DVA       0.0823
     94 H24        42.9268   55.4490   92.8876 H           1 DVA       0.0606
     95 H25        41.5494   54.3821   93.1893 H           1 DVA       0.0606
     96 H26        41.1593   56.4824   93.8799 H           1 DVA       0.2097
     97 H27        42.8360   54.6920   88.7956 H           1 DVA       0.1883
     98 H28        43.9914   57.1222   88.3411 H           1 DVA       0.0801
     99 H29        42.2633   58.1093   86.6851 H           1 DVA       0.0337
    100 H30        42.0488   58.3914   88.4071 H           1 DVA       0.0337
    101 H31        40.3398   56.5136   88.4720 H           1 DVA       0.0504
    102 H32        40.4628   56.3792   86.7175 H           1 DVA       0.0504
    103 H33        38.2762   59.3115   88.2702 H           1 DVA       0.1814
    104 H34        38.9191   58.1122   89.2505 H           1 DVA       0.1814
    105 H35        41.9279   54.7739   86.5963 H           1 DVA       0.1885
    106 H36        43.6527   54.9454   84.2535 H           1 DVA       0.0817
    107 H37        41.0867   55.2852   84.2940 H           1 DVA       0.0420
    108 H38        40.9655   53.5578   84.5753 H           1 DVA       0.0420
    109 H39        43.6488   54.4410   81.9652 H           1 DVA       0.0729
    110 H40        40.2215   53.5352   79.8970 H           1 DVA       0.1199
    111 H41        42.6737   53.9870   79.7086 H           1 DVA       0.2361
    112 H42        44.9236   53.8654   86.3043 H           1 DVA       0.1885
    113 H43        44.7205   51.3223   87.0609 H           1 DVA       0.0821
    114 H44        46.3601   52.9539   87.9254 H           1 DVA       0.0453
    115 H45        47.3058   52.8702   86.4564 H           1 DVA       0.0453
    116 H46        48.2437   50.4759   85.8388 H           1 DVA       0.0530
    117 H47        46.7842   51.4115   89.6907 H           1 DVA       0.0530
    118 H48        49.3320   48.5230   86.7344 H           1 DVA       0.0525
    119 H49        47.9092   49.4752   90.5778 H           1 DVA       0.0525
    120 H50        48.7111   46.9965   88.8749 H           1 DVA       0.2458
    121 H51        46.0992   52.4591   84.0459 H           1 DVA       0.1884
    122 H52        45.8692   51.3649   82.0659 H           1 DVA       0.0819
    123 H53        46.7628   48.8077   83.4771 H           1 DVA       0.0478
    124 H54        46.6873   48.9895   81.7302 H           1 DVA       0.0478
    125 H55        48.3208   52.1834   84.1665 H           1 DVA       0.1876
    126 H56        50.3938   51.8675   82.1396 H           1 DVA       0.0749
    127 H57        51.8011   51.4666   83.8080 H           1 DVA       0.0599
    128 H58        50.4838   51.5859   84.9765 H           1 DVA       0.0599
    129 H59        50.9361   53.7729   85.2019 H           1 DVA       0.2096
@<TRIPOS>BOND
     1     1     2   1
     2     2     3   1
     3     2     6   1
     4     3     4   1
     5     3     5   1
     6     6     7   2
     7     6     8  am
     8     8     9   1
     9     8    12   1
    10     9    10   1
    11     9    13   1
    12    10    11   1
    13    11    12   1
    14    13    14   2
    15    13    15  am
    16    15    16   1
    17    16    17   1
    18    17    18   2
    19    17    19  am
    20    19    20   1
    21    20    21   1
    22    20    23   1
    23    21    22   2
    24    21    25  am
    25    23    24   1
    26    25    26   1
    27    26    27   1
    28    26    29   1
    29    27    28   2
    30    27    34  am
    31    29    30   1
    32    30    31   1
    33    31    32   2
    34    31    33  am
    35    34    35   1
    36    35    36   1
    37    35    38   1
    38    36    37   2
    39    36    44  am
    40    38    39   1
    41    39    40   1
    42    39    41   2
    43    40    42   2
    44    41    43   1
    45    42    43   1
    46    44    45   1
    47    45    46   1
    48    45    48   1
    49    46    47   2
    50    46    56  am
    51    48    49   1
    52    49    50  ar
    53    49    51  ar
    54    50    52  ar
    55    51    53  ar
    56    52    54  ar
    57    53    54  ar
    58    54    55   1
    59    56    57   1
    60    57    58   1
    61    57    60   1
    62    58    59   2
    63    58    64  am
    64    60    61   1
    65    61    62  ar
    66    61    63  ar
    67    64    65   1
    68    65    66   1
    69    65    69   1
    70    66    67  ar
    71    66    68  ar
    72    69    70   1
    73     1    71   1
    74     1    72   1
    75     1    73   1
    76     2    74   1
    77     3    75   1
    78     4    76   1
    79     4    77   1
    80     4    78   1
    81     5    79   1
    82     5    80   1
    83     5    81   1
    84     9    82   1
    85    10    83   1
    86    10    84   1
    87    11    85   1
    88    11    86   1
    89    12    87   1
    90    12    88   1
    91    15    89   1
    92    16    90   1
    93    16    91   1
    94    19    92   1
    95    20    93   1
    96    23    94   1
    97    23    95   1
    98    24    96   1
    99    25    97   1
   100    26    98   1
   101    29    99   1
   102    29   100   1
   103    30   101   1
   104    30   102   1
   105    33   103   1
   106    33   104   1
   107    34   105   1
   108    35   106   1
   109    38   107   1
   110    38   108   1
   111    41   109   1
   112    42   110   1
   113    43   111   1
   114    44   112   1
   115    45   113   1
   116    48   114   1
   117    48   115   1
   118    50   116   1
   119    51   117   1
   120    52   118   1
   121    53   119   1
   122    55   120   1
   123    56   121   1
   124    57   122   1
   125    60   123   1
   126    60   124   1
   127    64   125   1
   128    65   126   1
   129    69   127   1
   130    69   128   1
   131    70   129   1
@<TRIPOS>SUBSTRUCTURE
     1  DVA      2

