@<TRIPOS>MOLECULE
1zea_ligand_058
   129   131
SMALL
GAST_HUCK
****
This file was generated by PARSER (from files_GN.cpp)

@<TRIPOS>ATOM
      1 N          34.9849   48.1177   93.6338 N.4         1 DVA       0.2381
      2 CA         36.0352   48.5455   94.5799 C.3         1 DVA       0.0675
      3 CB         37.2199   47.5163   94.6611 C.3         1 DVA       0.0139
      4 CG1        36.7672   46.0353   94.8411 C.3         1 DVA      -0.0553
      5 CG2        38.1640   47.6434   93.4302 C.3         1 DVA      -0.0553
      6 C          35.4501   48.8508   95.8969 C.2         1 DVA       0.2295
      7 O          34.5621   48.0911   96.2791 O.2         1 DVA      -0.3905
      8 N          35.8410   49.8478   96.7204 N.am        1 DVA      -0.2471
      9 CA         36.8597   50.8434   96.4423 C.3         1 DVA       0.1339
     10 CB         37.0113   51.6561   97.7559 C.3         1 DVA      -0.0104
     11 CG         36.4156   50.7451   98.8359 C.3         1 DVA      -0.0281
     12 CD         35.3446   49.9542   98.0698 C.3         1 DVA       0.0371
     13 C          36.6070   51.7411   95.3140 C.2         1 DVA       0.2039
     14 O          35.6206   51.5466   94.6088 O.2         1 DVA      -0.3944
     15 N          37.5415   52.6258   94.9784 N.am        1 DVA      -0.2664
     16 CA         37.5662   53.4211   93.7827 C.3         1 DVA       0.1201
     17 C          38.1333   52.6604   92.6806 C.2         1 DVA       0.2008
     18 O          37.9613   51.4436   92.6683 O.2         1 DVA      -0.3947
     19 N          38.7504   53.2850   91.6761 N.am        1 DVA      -0.2618
     20 CA         39.3444   52.6404   90.5354 C.3         1 DVA       0.1539
     21 C          39.7091   53.6487   89.5296 C.2         1 DVA       0.2062
     22 O          38.8425   53.9790   88.7315 O.2         1 DVA      -0.3943
     23 CB         40.5081   51.7069   90.9767 C.3         1 DVA       0.0843
     24 OG         41.3366   51.3589   89.8751 O.3         1 DVA      -0.3903
     25 N          40.9167   54.2155   89.4972 N.am        1 DVA      -0.2635
     26 CA         41.3894   55.2278   88.5817 C.3         1 DVA       0.1330
     27 C          41.3916   54.7111   87.2122 C.2         1 DVA       0.2041
     28 O          40.4005   54.8582   86.4935 O.2         1 DVA      -0.3944
     29 CB         40.6180   56.5739   88.7883 C.3         1 DVA       0.0045
     30 CG         41.1024   57.7407   87.8651 C.3         1 DVA       0.0412
     31 CD         40.0174   58.6326   87.5076 C.2         1 DVA       0.1737
     32 OE1        39.5975   58.6660   86.3568 O.2         1 DVA      -0.3973
     33 NE2        39.3567   59.3114   88.4216 N.am        1 DVA      -0.3009
     34 N          42.4633   54.0621   86.7512 N.am        1 DVA      -0.2625
     35 CA         42.6181   53.5569   85.4069 C.3         1 DVA       0.1369
     36 C          43.9296   52.9053   85.3047 C.2         1 DVA       0.2055
     37 O          44.0518   51.7407   84.9249 O.2         1 DVA      -0.3942
     38 CB         41.3858   52.6735   84.9727 C.3         1 DVA       0.0145
     39 CG         40.6428   53.2586   83.8312 C.2         1 DVA      -0.0027
     40 ND1        41.0207   53.1809   82.5410 N.2         1 DVA      -0.3252
     41 CD2        39.4554   53.9791   83.8758 C.2         1 DVA       0.0291
     42 CE1        40.1051   53.8418   81.8128 C.2         1 DVA       0.0907
     43 NE2        39.1483   54.3282   82.6184 N.pl3       1 DVA      -0.2752
     44 N          45.0140   53.6287   85.5888 N.am        1 DVA      -0.2620
     45 CA         46.3920   53.1944   85.5495 C.3         1 DVA       0.1390
     46 C          47.2647   54.1433   84.8532 C.2         1 DVA       0.2058
     47 O          48.4845   53.9888   84.9400 O.2         1 DVA      -0.3942
     48 CB         46.8772   52.9220   87.0233 C.3         1 DVA       0.0163
     49 CG         47.5370   51.5936   87.1788 C.ar        1 DVA      -0.0493
     50 CD1        48.8823   51.3985   86.7835 C.ar        1 DVA      -0.0685
     51 CD2        46.8016   50.4841   87.6579 C.ar        1 DVA      -0.0685
     52 CE1        49.4788   50.1261   86.8776 C.ar        1 DVA      -0.0398
     53 CE2        47.3984   49.2139   87.7563 C.ar        1 DVA      -0.0398
     54 CZ         48.7357   49.0314   87.3604 C.ar        1 DVA       0.0805
     55 OH         49.3095   47.8066   87.4383 O.3         1 DVA      -0.3376
     56 N          46.7802   55.1463   84.1183 N.am        1 DVA      -0.2620
     57 CA         47.5483   56.1698   83.4552 C.3         1 DVA       0.1423
     58 C          47.9911   55.7471   82.1250 C.2         1 DVA       0.2051
     59 O          49.1794   55.8516   81.8431 O.2         1 DVA      -0.3943
     60 CB         46.7067   57.4791   83.3566 C.3         1 DVA       0.0406
     61 CG         45.9727   57.8559   84.5845 C.2         1 DVA       0.0393
     62 OD1        46.1995   57.2629   85.7803 O.co2       1 DVA      -0.5688
     63 OD2        45.0880   58.8787   84.5444 O.co2       1 DVA      -0.5688
     64 N          47.1199   55.2608   81.2509 N.am        1 DVA      -0.2671
     65 CA         47.3792   54.8772   79.8903 C.3         1 DVA       0.1173
     66 C          47.2251   53.4115   79.7480 C.2         1 DVA       0.0623
     67 O          48.2490   52.6595   79.2902 O.co2       1 DVA      -0.5665
     68 OXT        46.0403   52.8072   80.0270 O.co2       1 DVA      -0.5665
     69 CB         46.4305   55.6592   78.9397 C.3         1 DVA       0.0789
     70 OG         45.1529   55.0411   78.8040 O.3         1 DVA      -0.3910
     71 H1         35.3845   48.0449   92.6987 H           1 DVA       0.2015
     72 H2         34.2324   48.8147   93.6267 H           1 DVA       0.2015
     73 H3         34.5997   47.2118   93.9203 H           1 DVA       0.2015
     74 H4         36.4280   49.4649   94.1465 H           1 DVA       0.1101
     75 H5         37.8274   47.7748   95.5362 H           1 DVA       0.0376
     76 H6         36.1909   45.6990   93.9738 H           1 DVA       0.0236
     77 H7         36.1563   45.9308   95.7420 H           1 DVA       0.0236
     78 H8         37.6440   45.3885   94.9532 H           1 DVA       0.0236
     79 H9         37.6267   47.4307   92.5031 H           1 DVA       0.0236
     80 H10        39.0013   46.9417   93.5123 H           1 DVA       0.0236
     81 H11        38.5772   48.6506   93.3679 H           1 DVA       0.0236
     82 H12        37.7931   50.2978   96.2611 H           1 DVA       0.0802
     83 H13        36.4357   52.5904   97.7291 H           1 DVA       0.0313
     84 H14        38.0586   51.8905   97.9690 H           1 DVA       0.0313
     85 H15        35.9963   51.3158   99.6704 H           1 DVA       0.0287
     86 H16        37.1891   50.0660   99.2137 H           1 DVA       0.0287
     87 H17        35.2101   48.9854   98.5669 H           1 DVA       0.0524
     88 H18        34.3914   50.4930   98.0731 H           1 DVA       0.0524
     89 H19        38.3295   52.6768   95.5507 H           1 DVA       0.1881
     90 H20        38.1629   54.3190   93.9922 H           1 DVA       0.0763
     91 H21        36.5689   53.7602   93.4890 H           1 DVA       0.0763
     92 H22        38.7096   54.2532   91.6599 H           1 DVA       0.1884
     93 H23        38.5856   51.9974   90.0685 H           1 DVA       0.0823
     94 H24        40.1128   50.7855   91.4023 H           1 DVA       0.0606
     95 H25        41.1224   52.1928   91.7389 H           1 DVA       0.0606
     96 H26        41.9816   50.7091   90.2282 H           1 DVA       0.2097
     97 H27        41.5566   53.9273   90.1710 H           1 DVA       0.1883
     98 H28        42.4298   55.4339   88.8648 H           1 DVA       0.0801
     99 H29        40.7440   56.8920   89.8285 H           1 DVA       0.0337
    100 H30        39.5455   56.3919   88.6365 H           1 DVA       0.0337
    101 H31        41.5543   57.3474   86.9493 H           1 DVA       0.0504
    102 H32        41.8809   58.3172   88.3776 H           1 DVA       0.0504
    103 H33        38.5558   59.8007   88.1781 H           1 DVA       0.1814
    104 H34        39.6229   59.2685   89.3544 H           1 DVA       0.1814
    105 H35        43.2182   53.9565   87.3573 H           1 DVA       0.1885
    106 H36        42.6867   54.4343   84.7453 H           1 DVA       0.0817
    107 H37        40.6993   52.5609   85.8190 H           1 DVA       0.0420
    108 H38        41.6676   51.6640   84.6607 H           1 DVA       0.0420
    109 H39        38.9181   54.2333   84.7118 H           1 DVA       0.0729
    110 H40        40.1343   53.9489   80.7980 H           1 DVA       0.1199
    111 H41        38.3780   54.8508   82.3419 H           1 DVA       0.2361
    112 H42        44.8646   54.5233   85.9483 H           1 DVA       0.1885
    113 H43        46.4621   52.2673   84.9692 H           1 DVA       0.0821
    114 H44        46.0349   52.9645   87.7233 H           1 DVA       0.0453
    115 H45        47.5602   53.7105   87.3663 H           1 DVA       0.0453
    116 H46        49.4335   52.1782   86.4181 H           1 DVA       0.0530
    117 H47        45.8226   50.5954   87.9441 H           1 DVA       0.0530
    118 H48        50.4482   49.9950   86.5832 H           1 DVA       0.0525
    119 H49        46.8518   48.4228   88.1033 H           1 DVA       0.0525
    120 H50        49.5570   47.5970   86.5132 H           1 DVA       0.2458
    121 H51        45.8094   55.2305   84.0507 H           1 DVA       0.1884
    122 H52        48.4243   56.4059   84.0721 H           1 DVA       0.0819
    123 H53        45.9782   57.3686   82.5502 H           1 DVA       0.0478
    124 H54        47.3597   58.3212   83.1026 H           1 DVA       0.0478
    125 H55        46.2094   55.1470   81.5652 H           1 DVA       0.1876
    126 H56        48.3971   55.1455   79.5974 H           1 DVA       0.0749
    127 H57        46.8733   55.7391   77.9454 H           1 DVA       0.0599
    128 H58        46.2837   56.6756   79.3249 H           1 DVA       0.0599
    129 H59        44.9226   54.7095   79.6991 H           1 DVA       0.2096
@<TRIPOS>BOND
     1     1     2   1
     2     2     3   1
     3     2     6   1
     4     3     4   1
     5     3     5   1
     6     6     7   2
     7     6     8  am
     8     8     9   1
     9     8    12   1
    10     9    10   1
    11     9    13   1
    12    10    11   1
    13    11    12   1
    14    13    14   2
    15    13    15  am
    16    15    16   1
    17    16    17   1
    18    17    18   2
    19    17    19  am
    20    19    20   1
    21    20    21   1
    22    20    23   1
    23    21    22   2
    24    21    25  am
    25    23    24   1
    26    25    26   1
    27    26    27   1
    28    26    29   1
    29    27    28   2
    30    27    34  am
    31    29    30   1
    32    30    31   1
    33    31    32   2
    34    31    33  am
    35    34    35   1
    36    35    36   1
    37    35    38   1
    38    36    37   2
    39    36    44  am
    40    38    39   1
    41    39    40   1
    42    39    41   2
    43    40    42   2
    44    41    43   1
    45    42    43   1
    46    44    45   1
    47    45    46   1
    48    45    48   1
    49    46    47   2
    50    46    56  am
    51    48    49   1
    52    49    50  ar
    53    49    51  ar
    54    50    52  ar
    55    51    53  ar
    56    52    54  ar
    57    53    54  ar
    58    54    55   1
    59    56    57   1
    60    57    58   1
    61    57    60   1
    62    58    59   2
    63    58    64  am
    64    60    61   1
    65    61    62  ar
    66    61    63  ar
    67    64    65   1
    68    65    66   1
    69    65    69   1
    70    66    67  ar
    71    66    68  ar
    72    69    70   1
    73     1    71   1
    74     1    72   1
    75     1    73   1
    76     2    74   1
    77     3    75   1
    78     4    76   1
    79     4    77   1
    80     4    78   1
    81     5    79   1
    82     5    80   1
    83     5    81   1
    84     9    82   1
    85    10    83   1
    86    10    84   1
    87    11    85   1
    88    11    86   1
    89    12    87   1
    90    12    88   1
    91    15    89   1
    92    16    90   1
    93    16    91   1
    94    19    92   1
    95    20    93   1
    96    23    94   1
    97    23    95   1
    98    24    96   1
    99    25    97   1
   100    26    98   1
   101    29    99   1
   102    29   100   1
   103    30   101   1
   104    30   102   1
   105    33   103   1
   106    33   104   1
   107    34   105   1
   108    35   106   1
   109    38   107   1
   110    38   108   1
   111    41   109   1
   112    42   110   1
   113    43   111   1
   114    44   112   1
   115    45   113   1
   116    48   114   1
   117    48   115   1
   118    50   116   1
   119    51   117   1
   120    52   118   1
   121    53   119   1
   122    55   120   1
   123    56   121   1
   124    57   122   1
   125    60   123   1
   126    60   124   1
   127    64   125   1
   128    65   126   1
   129    69   127   1
   130    69   128   1
   131    70   129   1
@<TRIPOS>SUBSTRUCTURE
     1  DVA      2

