@<TRIPOS>MOLECULE
1zea_ligand_018
   129   131
SMALL
GAST_HUCK
****
This file was generated by PARSER (from files_GN.cpp)

@<TRIPOS>ATOM
      1 N          51.4837   49.7408   77.9018 N.4         1 DVA       0.2381
      2 CA         51.5112   50.9327   77.0357 C.3         1 DVA       0.0675
      3 CB         52.9564   51.2736   76.4994 C.3         1 DVA       0.0139
      4 CG1        53.1420   52.7672   76.1068 C.3         1 DVA      -0.0553
      5 CG2        54.1467   50.7767   77.3738 C.3         1 DVA      -0.0553
      6 C          50.6766   52.0187   77.5993 C.2         1 DVA       0.2295
      7 O          49.7208   52.3428   76.8961 O.2         1 DVA      -0.3905
      8 N          50.8166   52.6755   78.7719 N.am        1 DVA      -0.2471
      9 CA         49.9130   53.7324   79.1926 C.3         1 DVA       0.1339
     10 CB         50.6258   54.4211   80.3792 C.3         1 DVA      -0.0104
     11 CG         51.4870   53.3012   80.9629 C.3         1 DVA      -0.0281
     12 CD         51.8727   52.4688   79.7214 C.3         1 DVA       0.0371
     13 C          48.5542   53.3172   79.5428 C.2         1 DVA       0.2039
     14 O          47.7040   54.1965   79.6339 O.2         1 DVA      -0.3944
     15 N          48.2212   52.0390   79.7141 N.am        1 DVA      -0.2664
     16 CA         46.9050   51.5193   79.9192 C.3         1 DVA       0.1201
     17 C          46.4755   51.5064   81.3141 C.2         1 DVA       0.2008
     18 O          46.6386   52.5101   81.9871 O.2         1 DVA      -0.3947
     19 N          45.8924   50.4235   81.8205 N.am        1 DVA      -0.2618
     20 CA         45.4077   50.2723   83.1663 C.3         1 DVA       0.1539
     21 C          44.0690   50.8334   83.3139 C.2         1 DVA       0.2062
     22 O          43.1626   50.4011   82.6171 O.2         1 DVA      -0.3943
     23 CB         45.4470   48.7816   83.6066 C.3         1 DVA       0.0843
     24 OG         44.3825   47.9923   83.0741 O.3         1 DVA      -0.3903
     25 N          43.8503   51.7997   84.1952 N.am        1 DVA      -0.2635
     26 CA         42.5959   52.3999   84.5616 C.3         1 DVA       0.1330
     27 C          42.8875   53.2845   85.6793 C.2         1 DVA       0.2041
     28 O          43.3682   54.3839   85.4350 O.2         1 DVA      -0.3944
     29 CB         41.8689   53.1389   83.3868 C.3         1 DVA       0.0045
     30 CG         40.7196   54.1030   83.8310 C.3         1 DVA       0.0412
     31 CD         39.4803   53.9908   83.0824 C.2         1 DVA       0.1737
     32 OE1        39.4490   54.2109   81.8793 O.2         1 DVA      -0.3973
     33 NE2        38.3467   53.7160   83.6965 N.am        1 DVA      -0.3009
     34 N          42.6318   52.9131   86.9308 N.am        1 DVA      -0.2625
     35 CA         42.9340   53.6781   88.1115 C.3         1 DVA       0.1369
     36 C          42.7170   55.1192   87.9324 C.2         1 DVA       0.2055
     37 O          41.6072   55.5380   87.6311 O.2         1 DVA      -0.3942
     38 CB         42.2140   53.1053   89.3719 C.3         1 DVA       0.0145
     39 CG         40.7353   53.0606   89.4167 C.2         1 DVA      -0.0027
     40 ND1        40.0468   52.6026   90.4769 N.2         1 DVA      -0.3252
     41 CD2        39.7988   53.4157   88.4455 C.2         1 DVA       0.0291
     42 CE1        38.7373   52.6776   90.1802 C.2         1 DVA       0.0907
     43 NE2        38.5894   53.1671   88.9435 N.pl3       1 DVA      -0.2752
     44 N          43.7529   55.9424   88.0027 N.am        1 DVA      -0.2620
     45 CA         43.7991   57.3668   87.7711 C.3         1 DVA       0.1390
     46 C          44.1237   58.1130   88.9871 C.2         1 DVA       0.2058
     47 O          44.0477   59.3346   88.9402 O.2         1 DVA      -0.3942
     48 CB         44.7692   57.6809   86.5772 C.3         1 DVA       0.0163
     49 CG         45.8941   56.7194   86.3374 C.ar        1 DVA      -0.0493
     50 CD1        45.9355   55.9278   85.1670 C.ar        1 DVA      -0.0685
     51 CD2        46.9321   56.5695   87.2858 C.ar        1 DVA      -0.0685
     52 CE1        46.9502   54.9687   84.9737 C.ar        1 DVA      -0.0398
     53 CE2        47.9424   55.6024   87.1023 C.ar        1 DVA      -0.0398
     54 CZ         47.9423   54.7901   85.9521 C.ar        1 DVA       0.0805
     55 OH         48.8877   53.8314   85.7818 O.3         1 DVA      -0.3376
     56 N          44.4008   57.5021   90.1363 N.am        1 DVA      -0.2620
     57 CA         44.6730   58.1059   91.4103 C.3         1 DVA       0.1423
     58 C          43.4831   57.9157   92.2355 C.2         1 DVA       0.2051
     59 O          43.3776   56.9367   92.9681 O.2         1 DVA      -0.3943
     60 CB         45.9983   57.4971   91.9584 C.3         1 DVA       0.0406
     61 CG         46.4304   58.1033   93.2365 C.2         1 DVA       0.0393
     62 OD1        46.7697   59.4089   93.2962 O.co2       1 DVA      -0.5688
     63 OD2        46.4794   57.3670   94.3674 O.co2       1 DVA      -0.5688
     64 N          42.4940   58.7960   92.1409 N.am        1 DVA      -0.2671
     65 CA         41.2301   58.7456   92.8208 C.3         1 DVA       0.1173
     66 C          41.3645   59.1845   94.2288 C.2         1 DVA       0.0623
     67 O          41.1297   58.3240   95.2436 O.co2       1 DVA      -0.5665
     68 OXT        41.7764   60.4371   94.5250 O.co2       1 DVA      -0.5665
     69 CB         40.1921   59.6212   92.0753 C.3         1 DVA       0.0789
     70 OG         40.0002   59.1644   90.7380 O.3         1 DVA      -0.3910
     71 H1         51.8103   48.9421   77.3547 H           1 DVA       0.2015
     72 H2         50.5293   49.5493   78.2098 H           1 DVA       0.2015
     73 H3         52.0920   49.8639   78.7143 H           1 DVA       0.2015
     74 H4         50.9765   50.5679   76.1479 H           1 DVA       0.1101
     75 H5         53.0757   50.7195   75.5597 H           1 DVA       0.0376
     76 H6         54.0909   52.9152   75.5887 H           1 DVA       0.0236
     77 H7         53.1299   53.4051   76.9904 H           1 DVA       0.0236
     78 H8         52.3394   53.0826   75.4381 H           1 DVA       0.0236
     79 H9         54.1079   49.6903   77.4835 H           1 DVA       0.0236
     80 H10        54.1303   51.2219   78.3657 H           1 DVA       0.0236
     81 H11        55.0997   51.0254   76.9026 H           1 DVA       0.0236
     82 H12        49.8478   54.4644   78.3778 H           1 DVA       0.0802
     83 H13        49.9442   54.8408   81.1256 H           1 DVA       0.0313
     84 H14        51.2723   55.2243   80.0113 H           1 DVA       0.0313
     85 H15        50.8947   52.6955   81.6586 H           1 DVA       0.0287
     86 H16        52.3654   53.6928   81.4854 H           1 DVA       0.0287
     87 H17        52.8123   52.8479   79.3179 H           1 DVA       0.0524
     88 H18        51.9763   51.4216   80.0048 H           1 DVA       0.0524
     89 H19        48.9231   51.3818   79.5908 H           1 DVA       0.1881
     90 H20        46.9115   50.4999   79.5259 H           1 DVA       0.0763
     91 H21        46.1842   52.0839   79.3196 H           1 DVA       0.0763
     92 H22        45.8083   49.6516   81.2411 H           1 DVA       0.1884
     93 H23        46.1134   50.7928   83.8222 H           1 DVA       0.0823
     94 H24        45.3946   48.7159   84.6975 H           1 DVA       0.0606
     95 H25        46.3943   48.3397   83.2913 H           1 DVA       0.0606
     96 H26        44.5381   47.9738   82.1102 H           1 DVA       0.2097
     97 H27        44.6310   52.1010   84.6879 H           1 DVA       0.1883
     98 H28        41.9302   51.5964   84.8978 H           1 DVA       0.0801
     99 H29        41.4577   52.3772   82.7192 H           1 DVA       0.0337
    100 H30        42.6027   53.7067   82.8073 H           1 DVA       0.0337
    101 H31        41.0715   55.1341   83.7447 H           1 DVA       0.0504
    102 H32        40.4998   53.9370   84.8887 H           1 DVA       0.0504
    103 H33        37.5042   53.6920   83.2154 H           1 DVA       0.1814
    104 H34        38.3486   53.5672   84.6561 H           1 DVA       0.1814
    105 H35        42.2557   52.0242   87.0596 H           1 DVA       0.1885
    106 H36        44.0022   53.5074   88.2973 H           1 DVA       0.0817
    107 H37        42.5515   53.6748   90.2435 H           1 DVA       0.0420
    108 H38        42.5568   52.0753   89.5128 H           1 DVA       0.0420
    109 H39        39.9856   53.7822   87.5147 H           1 DVA       0.0729
    110 H40        37.9755   52.3960   90.7985 H           1 DVA       0.1199
    111 H41        37.7519   53.3127   88.4782 H           1 DVA       0.2361
    112 H42        44.6013   55.5354   88.2424 H           1 DVA       0.1885
    113 H43        42.8030   57.7193   87.4784 H           1 DVA       0.0821
    114 H44        45.2094   58.6737   86.6951 H           1 DVA       0.0453
    115 H45        44.1509   57.7388   85.6767 H           1 DVA       0.0453
    116 H46        45.2123   56.0217   84.4482 H           1 DVA       0.0530
    117 H47        46.9497   57.1393   88.1319 H           1 DVA       0.0530
    118 H48        46.9498   54.3896   84.1311 H           1 DVA       0.0525
    119 H49        48.6685   55.4864   87.8110 H           1 DVA       0.0525
    120 H50        48.5762   53.0584   86.3009 H           1 DVA       0.2458
    121 H51        44.3942   56.5315   90.1269 H           1 DVA       0.1884
    122 H52        44.8368   59.1833   91.3082 H           1 DVA       0.0819
    123 H53        46.7971   57.6561   91.2311 H           1 DVA       0.0478
    124 H54        45.8858   56.4167   92.0900 H           1 DVA       0.0478
    125 H55        42.6277   59.5403   91.5293 H           1 DVA       0.1876
    126 H56        40.8652   57.7134   92.7982 H           1 DVA       0.0749
    127 H57        40.5273   60.6604   92.0343 H           1 DVA       0.0599
    128 H58        39.2279   59.5865   92.5889 H           1 DVA       0.0599
    129 H59        39.4566   58.3518   90.8172 H           1 DVA       0.2096
@<TRIPOS>BOND
     1     1     2   1
     2     2     3   1
     3     2     6   1
     4     3     4   1
     5     3     5   1
     6     6     7   2
     7     6     8  am
     8     8     9   1
     9     8    12   1
    10     9    10   1
    11     9    13   1
    12    10    11   1
    13    11    12   1
    14    13    14   2
    15    13    15  am
    16    15    16   1
    17    16    17   1
    18    17    18   2
    19    17    19  am
    20    19    20   1
    21    20    21   1
    22    20    23   1
    23    21    22   2
    24    21    25  am
    25    23    24   1
    26    25    26   1
    27    26    27   1
    28    26    29   1
    29    27    28   2
    30    27    34  am
    31    29    30   1
    32    30    31   1
    33    31    32   2
    34    31    33  am
    35    34    35   1
    36    35    36   1
    37    35    38   1
    38    36    37   2
    39    36    44  am
    40    38    39   1
    41    39    40   1
    42    39    41   2
    43    40    42   2
    44    41    43   1
    45    42    43   1
    46    44    45   1
    47    45    46   1
    48    45    48   1
    49    46    47   2
    50    46    56  am
    51    48    49   1
    52    49    50  ar
    53    49    51  ar
    54    50    52  ar
    55    51    53  ar
    56    52    54  ar
    57    53    54  ar
    58    54    55   1
    59    56    57   1
    60    57    58   1
    61    57    60   1
    62    58    59   2
    63    58    64  am
    64    60    61   1
    65    61    62  ar
    66    61    63  ar
    67    64    65   1
    68    65    66   1
    69    65    69   1
    70    66    67  ar
    71    66    68  ar
    72    69    70   1
    73     1    71   1
    74     1    72   1
    75     1    73   1
    76     2    74   1
    77     3    75   1
    78     4    76   1
    79     4    77   1
    80     4    78   1
    81     5    79   1
    82     5    80   1
    83     5    81   1
    84     9    82   1
    85    10    83   1
    86    10    84   1
    87    11    85   1
    88    11    86   1
    89    12    87   1
    90    12    88   1
    91    15    89   1
    92    16    90   1
    93    16    91   1
    94    19    92   1
    95    20    93   1
    96    23    94   1
    97    23    95   1
    98    24    96   1
    99    25    97   1
   100    26    98   1
   101    29    99   1
   102    29   100   1
   103    30   101   1
   104    30   102   1
   105    33   103   1
   106    33   104   1
   107    34   105   1
   108    35   106   1
   109    38   107   1
   110    38   108   1
   111    41   109   1
   112    42   110   1
   113    43   111   1
   114    44   112   1
   115    45   113   1
   116    48   114   1
   117    48   115   1
   118    50   116   1
   119    51   117   1
   120    52   118   1
   121    53   119   1
   122    55   120   1
   123    56   121   1
   124    57   122   1
   125    60   123   1
   126    60   124   1
   127    64   125   1
   128    65   126   1
   129    69   127   1
   130    69   128   1
   131    70   129   1
@<TRIPOS>SUBSTRUCTURE
     1  DVA      2

