@<TRIPOS>MOLECULE
1zea_ligand_020
   129   131
SMALL
GAST_HUCK
****
This file was generated by PARSER (from files_GN.cpp)

@<TRIPOS>ATOM
      1 N          40.3373   56.4598   92.2856 N.4         1 DVA       0.2381
      2 CA         40.8457   55.9396   93.5624 C.3         1 DVA       0.0675
      3 CB         40.9102   54.3709   93.5911 C.3         1 DVA       0.0139
      4 CG1        39.5581   53.6449   93.2933 C.3         1 DVA      -0.0553
      5 CG2        42.0128   53.8268   92.6385 C.3         1 DVA      -0.0553
      6 C          40.0841   56.5554   94.6556 C.2         1 DVA       0.2295
      7 O          38.9109   56.2133   94.7462 O.2         1 DVA      -0.3905
      8 N          40.5239   57.5203   95.4828 N.am        1 DVA      -0.2471
      9 CA         41.8103   58.1706   95.4184 C.3         1 DVA       0.1339
     10 CB         41.9197   58.9776   96.7392 C.3         1 DVA      -0.0104
     11 CG         40.4642   59.2519   97.1304 C.3         1 DVA      -0.0281
     12 CD         39.7069   58.0495   96.5491 C.3         1 DVA       0.0371
     13 C          41.9644   59.0264   94.2379 C.2         1 DVA       0.2039
     14 O          43.0742   59.1133   93.7228 O.2         1 DVA      -0.3944
     15 N          40.9403   59.7405   93.7792 N.am        1 DVA      -0.2664
     16 CA         40.9794   60.7197   92.7369 C.3         1 DVA       0.1201
     17 C          41.3166   60.1793   91.4316 C.2         1 DVA       0.2008
     18 O          42.4822   60.2381   91.0517 O.2         1 DVA      -0.3947
     19 N          40.3547   59.7384   90.6262 N.am        1 DVA      -0.2618
     20 CA         40.5131   59.3222   89.2585 C.3         1 DVA       0.1539
     21 C          41.3888   58.1539   89.1936 C.2         1 DVA       0.2062
     22 O          40.9159   57.0282   89.0782 O.2         1 DVA      -0.3943
     23 CB         39.1100   59.1169   88.6188 C.3         1 DVA       0.0843
     24 OG         39.1843   58.7481   87.2438 O.3         1 DVA      -0.3903
     25 N          42.6987   58.3332   89.3285 N.am        1 DVA      -0.2635
     26 CA         43.7193   57.3242   89.3132 C.3         1 DVA       0.1330
     27 C          43.5541   56.3909   88.1980 C.2         1 DVA       0.2041
     28 O          43.3698   56.8388   87.0694 O.2         1 DVA      -0.3944
     29 CB         45.1420   57.9646   89.3300 C.3         1 DVA       0.0045
     30 CG         45.4793   58.9326   88.1606 C.3         1 DVA       0.0412
     31 CD         46.8796   58.8929   87.7672 C.2         1 DVA       0.1737
     32 OE1        47.3339   57.8945   87.2265 O.2         1 DVA      -0.3973
     33 NE2        47.6832   59.9220   87.9249 N.am        1 DVA      -0.3009
     34 N          43.5529   55.0797   88.4157 N.am        1 DVA      -0.2625
     35 CA         43.3013   54.0669   87.4198 C.3         1 DVA       0.1369
     36 C          44.3662   53.9638   86.4254 C.2         1 DVA       0.2055
     37 O          45.4717   54.4475   86.6453 O.2         1 DVA      -0.3942
     38 CB         43.0233   52.6864   88.0809 C.3         1 DVA       0.0145
     39 CG         41.7865   52.6439   88.8900 C.2         1 DVA      -0.0027
     40 ND1        40.7304   53.4656   88.7415 N.2         1 DVA      -0.3252
     41 CD2        41.4933   51.7633   89.9293 C.2         1 DVA       0.0291
     42 CE1        39.8121   53.1066   89.6570 C.2         1 DVA       0.0907
     43 NE2        40.2738   52.0750   90.3793 N.pl3       1 DVA      -0.2752
     44 N          44.0819   53.3777   85.2684 N.am        1 DVA      -0.2620
     45 CA         44.9313   53.2734   84.1106 C.3         1 DVA       0.1390
     46 C          45.2022   51.8578   83.8540 C.2         1 DVA       0.2058
     47 O          45.0311   51.3639   82.7467 O.2         1 DVA      -0.3942
     48 CB         44.3142   54.1337   82.9503 C.3         1 DVA       0.0163
     49 CG         42.8416   54.0406   82.7257 C.ar        1 DVA      -0.0493
     50 CD1        42.3034   53.4967   81.5312 C.ar        1 DVA      -0.0685
     51 CD2        41.9423   54.5683   83.6844 C.ar        1 DVA      -0.0685
     52 CE1        40.9111   53.4553   81.3193 C.ar        1 DVA      -0.0398
     53 CE2        40.5491   54.5099   83.4831 C.ar        1 DVA      -0.0398
     54 CZ         40.0283   53.9597   82.2967 C.ar        1 DVA       0.0805
     55 OH         38.6863   53.9272   82.0839 O.3         1 DVA      -0.3376
     56 N          45.6884   51.1436   84.8649 N.am        1 DVA      -0.2620
     57 CA         46.1138   49.7729   84.8995 C.3         1 DVA       0.1423
     58 C          47.2783   49.7069   85.7853 C.2         1 DVA       0.2051
     59 O          48.3870   49.5607   85.2904 O.2         1 DVA      -0.3943
     60 CB         44.9645   48.8548   85.4085 C.3         1 DVA       0.0406
     61 CG         43.9725   48.5389   84.3636 C.2         1 DVA       0.0393
     62 OD1        43.6759   47.2490   84.0790 O.co2       1 DVA      -0.5688
     63 OD2        43.3968   49.5167   83.6278 O.co2       1 DVA      -0.5688
     64 N          47.1339   49.8425   87.1000 N.am        1 DVA      -0.2671
     65 CA         48.1676   49.9262   88.0932 C.3         1 DVA       0.1173
     66 C          47.6944   50.8432   89.1508 C.2         1 DVA       0.0623
     67 O          48.2928   52.0427   89.3440 O.co2       1 DVA      -0.5665
     68 OXT        46.6497   50.5153   89.9461 O.co2       1 DVA      -0.5665
     69 CB         48.5585   48.5542   88.7043 C.3         1 DVA       0.0789
     70 OG         49.2037   47.6931   87.7641 O.3         1 DVA      -0.3910
     71 H1         40.9109   56.1096   91.5194 H           1 DVA       0.2015
     72 H2         40.3797   57.4784   92.2906 H           1 DVA       0.2015
     73 H3         39.3703   56.1675   92.1401 H           1 DVA       0.2015
     74 H4         41.8776   56.2778   93.6020 H           1 DVA       0.1101
     75 H5         41.2104   54.0708   94.6045 H           1 DVA       0.0376
     76 H6         39.7072   52.5650   93.2034 H           1 DVA       0.0236
     77 H7         39.1196   54.0112   92.3603 H           1 DVA       0.0236
     78 H8         38.8505   53.8029   94.1070 H           1 DVA       0.0236
     79 H9         42.9899   54.2416   92.9053 H           1 DVA       0.0236
     80 H10        41.7966   54.0907   91.5991 H           1 DVA       0.0236
     81 H11        42.0883   52.7367   92.7061 H           1 DVA       0.0236
     82 H12        42.6091   57.4172   95.4440 H           1 DVA       0.0802
     83 H13        42.4962   59.9053   96.6419 H           1 DVA       0.0313
     84 H14        42.3903   58.3631   97.5152 H           1 DVA       0.0313
     85 H15        40.1238   60.1813   96.6649 H           1 DVA       0.0287
     86 H16        40.3431   59.3299   98.2151 H           1 DVA       0.0287
     87 H17        39.5646   57.2839   97.3155 H           1 DVA       0.0524
     88 H18        38.7313   58.3770   96.1830 H           1 DVA       0.0524
     89 H19        40.0904   59.6311   94.2378 H           1 DVA       0.1881
     90 H20        41.6837   61.5077   93.0283 H           1 DVA       0.0763
     91 H21        39.9923   61.1853   92.6840 H           1 DVA       0.0763
     92 H22        39.4460   59.7945   90.9574 H           1 DVA       0.1884
     93 H23        40.9695   60.1400   88.6840 H           1 DVA       0.0823
     94 H24        38.5573   60.0556   88.6702 H           1 DVA       0.0606
     95 H25        38.5417   58.3571   89.1567 H           1 DVA       0.0606
     96 H26        39.5365   57.8323   87.2334 H           1 DVA       0.2097
     97 H27        42.9935   59.2499   89.4590 H           1 DVA       0.1883
     98 H28        43.6295   56.7695   90.2554 H           1 DVA       0.0801
     99 H29        45.8782   57.1564   89.3618 H           1 DVA       0.0337
    100 H30        45.2461   58.5257   90.2627 H           1 DVA       0.0337
    101 H31        45.2077   59.9544   88.4560 H           1 DVA       0.0504
    102 H32        44.8834   58.6875   87.2739 H           1 DVA       0.0504
    103 H33        48.6038   59.8639   87.6300 H           1 DVA       0.1814
    104 H34        47.3552   60.7416   88.3257 H           1 DVA       0.1814
    105 H35        43.6886   54.7739   89.3270 H           1 DVA       0.1885
    106 H36        42.3792   54.3637   86.8994 H           1 DVA       0.0817
    107 H37        43.8812   52.3897   88.7001 H           1 DVA       0.0420
    108 H38        42.9098   51.9349   87.2921 H           1 DVA       0.0420
    109 H39        42.0851   51.0129   90.2823 H           1 DVA       0.0729
    110 H40        38.9041   53.5600   89.7829 H           1 DVA       0.1199
    111 H41        39.8017   51.6334   91.0997 H           1 DVA       0.2361
    112 H42        43.2119   52.9633   85.1951 H           1 DVA       0.1885
    113 H43        45.9194   53.7114   84.3090 H           1 DVA       0.0821
    114 H44        44.8562   53.9052   82.0295 H           1 DVA       0.0453
    115 H45        44.5387   55.1837   83.1689 H           1 DVA       0.0453
    116 H46        42.9261   53.1325   80.8094 H           1 DVA       0.0530
    117 H47        42.2988   55.0068   84.5348 H           1 DVA       0.0530
    118 H48        40.5419   53.0606   80.4491 H           1 DVA       0.0525
    119 H49        39.9161   54.8963   84.1871 H           1 DVA       0.0525
    120 H50        38.2663   54.1573   82.9449 H           1 DVA       0.2458
    121 H51        45.7478   51.6156   85.7134 H           1 DVA       0.1884
    122 H52        46.4060   49.4417   83.8954 H           1 DVA       0.0819
    123 H53        44.4437   49.3209   86.2535 H           1 DVA       0.0478
    124 H54        45.3854   47.9109   85.7664 H           1 DVA       0.0478
    125 H55        46.2191   49.9724   87.4172 H           1 DVA       0.1876
    126 H56        49.0605   50.3700   87.6404 H           1 DVA       0.0749
    127 H57        47.6696   48.0452   89.0941 H           1 DVA       0.0599
    128 H58        49.2540   48.6959   89.5354 H           1 DVA       0.0599
    129 H59        49.1810   48.1838   86.9156 H           1 DVA       0.2096
@<TRIPOS>BOND
     1     1     2   1
     2     2     3   1
     3     2     6   1
     4     3     4   1
     5     3     5   1
     6     6     7   2
     7     6     8  am
     8     8     9   1
     9     8    12   1
    10     9    10   1
    11     9    13   1
    12    10    11   1
    13    11    12   1
    14    13    14   2
    15    13    15  am
    16    15    16   1
    17    16    17   1
    18    17    18   2
    19    17    19  am
    20    19    20   1
    21    20    21   1
    22    20    23   1
    23    21    22   2
    24    21    25  am
    25    23    24   1
    26    25    26   1
    27    26    27   1
    28    26    29   1
    29    27    28   2
    30    27    34  am
    31    29    30   1
    32    30    31   1
    33    31    32   2
    34    31    33  am
    35    34    35   1
    36    35    36   1
    37    35    38   1
    38    36    37   2
    39    36    44  am
    40    38    39   1
    41    39    40   1
    42    39    41   2
    43    40    42   2
    44    41    43   1
    45    42    43   1
    46    44    45   1
    47    45    46   1
    48    45    48   1
    49    46    47   2
    50    46    56  am
    51    48    49   1
    52    49    50  ar
    53    49    51  ar
    54    50    52  ar
    55    51    53  ar
    56    52    54  ar
    57    53    54  ar
    58    54    55   1
    59    56    57   1
    60    57    58   1
    61    57    60   1
    62    58    59   2
    63    58    64  am
    64    60    61   1
    65    61    62  ar
    66    61    63  ar
    67    64    65   1
    68    65    66   1
    69    65    69   1
    70    66    67  ar
    71    66    68  ar
    72    69    70   1
    73     1    71   1
    74     1    72   1
    75     1    73   1
    76     2    74   1
    77     3    75   1
    78     4    76   1
    79     4    77   1
    80     4    78   1
    81     5    79   1
    82     5    80   1
    83     5    81   1
    84     9    82   1
    85    10    83   1
    86    10    84   1
    87    11    85   1
    88    11    86   1
    89    12    87   1
    90    12    88   1
    91    15    89   1
    92    16    90   1
    93    16    91   1
    94    19    92   1
    95    20    93   1
    96    23    94   1
    97    23    95   1
    98    24    96   1
    99    25    97   1
   100    26    98   1
   101    29    99   1
   102    29   100   1
   103    30   101   1
   104    30   102   1
   105    33   103   1
   106    33   104   1
   107    34   105   1
   108    35   106   1
   109    38   107   1
   110    38   108   1
   111    41   109   1
   112    42   110   1
   113    43   111   1
   114    44   112   1
   115    45   113   1
   116    48   114   1
   117    48   115   1
   118    50   116   1
   119    51   117   1
   120    52   118   1
   121    53   119   1
   122    55   120   1
   123    56   121   1
   124    57   122   1
   125    60   123   1
   126    60   124   1
   127    64   125   1
   128    65   126   1
   129    69   127   1
   130    69   128   1
   131    70   129   1
@<TRIPOS>SUBSTRUCTURE
     1  DVA      2

