@<TRIPOS>MOLECULE
1zea_ligand_091
   129   131
SMALL
GAST_HUCK
****
This file was generated by PARSER (from files_GN.cpp)

@<TRIPOS>ATOM
      1 N          43.2269   60.8596   97.4928 N.4         1 DVA       0.2381
      2 CA         42.2409   61.5442   96.6330 C.3         1 DVA       0.0675
      3 CB         42.1418   63.0829   96.9227 C.3         1 DVA       0.0139
      4 CG1        42.0381   63.4203   98.4371 C.3         1 DVA      -0.0553
      5 CG2        43.3099   63.8751   96.2680 C.3         1 DVA      -0.0553
      6 C          40.9310   60.8782   96.6703 C.2         1 DVA       0.2295
      7 O          40.6025   60.3928   97.7510 O.2         1 DVA      -0.3905
      8 N          40.0632   60.8276   95.6387 N.am        1 DVA      -0.2471
      9 CA         40.2767   61.3964   94.3290 C.3         1 DVA       0.1339
     10 CB         38.8771   61.4023   93.6701 C.3         1 DVA      -0.0104
     11 CG         38.1304   60.2522   94.3563 C.3         1 DVA      -0.0281
     12 CD         38.7644   60.2085   95.7544 C.3         1 DVA       0.0371
     13 C          41.2544   60.6322   93.5480 C.2         1 DVA       0.2039
     14 O          41.1125   59.4235   93.4012 O.2         1 DVA      -0.3944
     15 N          42.3032   61.2640   93.0276 N.am        1 DVA      -0.2664
     16 CA         43.4028   60.6755   92.3258 C.3         1 DVA       0.1201
     17 C          43.1155   59.9733   91.0827 C.2         1 DVA       0.2008
     18 O          44.0576   59.3804   90.5631 O.2         1 DVA      -0.3947
     19 N          41.8784   59.8210   90.6201 N.am        1 DVA      -0.2618
     20 CA         41.4619   58.8584   89.6333 C.3         1 DVA       0.1539
     21 C          41.6890   57.5222   90.1795 C.2         1 DVA       0.2062
     22 O          42.5162   56.7815   89.6450 O.2         1 DVA      -0.3943
     23 CB         39.9766   59.0896   89.2557 C.3         1 DVA       0.0843
     24 OG         39.5134   58.1332   88.3098 O.3         1 DVA      -0.3903
     25 N          41.0646   57.1603   91.3021 N.am        1 DVA      -0.2635
     26 CA         41.3445   56.0430   92.1720 C.3         1 DVA       0.1330
     27 C          41.5354   54.8067   91.4176 C.2         1 DVA       0.2041
     28 O          42.6500   54.2812   91.4168 O.2         1 DVA      -0.3944
     29 CB         42.4930   56.4565   93.1516 C.3         1 DVA       0.0045
     30 CG         42.6679   55.5469   94.4013 C.3         1 DVA       0.0412
     31 CD         41.6139   55.6985   95.3787 C.2         1 DVA       0.1737
     32 OE1        40.8198   54.7866   95.5949 O.2         1 DVA      -0.3973
     33 NE2        41.4867   56.7966   96.0824 N.am        1 DVA      -0.3009
     34 N          40.5506   54.3250   90.6702 N.am        1 DVA      -0.2625
     35 CA         40.5474   53.1463   89.8395 C.3         1 DVA       0.1369
     36 C          41.5511   53.1867   88.7651 C.2         1 DVA       0.2055
     37 O          42.7541   53.1917   89.0308 O.2         1 DVA      -0.3942
     38 CB         40.4930   51.7822   90.6158 C.3         1 DVA       0.0145
     39 CG         40.7613   51.8098   92.0690 C.2         1 DVA      -0.0027
     40 ND1        39.8373   51.5456   93.0204 N.2         1 DVA      -0.3252
     41 CD2        41.9740   51.9998   92.7171 C.2         1 DVA       0.0291
     42 CE1        40.4558   51.5889   94.2096 C.2         1 DVA       0.0907
     43 NE2        41.7554   51.8647   94.0311 N.pl3       1 DVA      -0.2752
     44 N          41.1677   53.1707   87.4835 N.am        1 DVA      -0.2620
     45 CA         41.9707   53.3507   86.3080 C.3         1 DVA       0.1390
     46 C          41.9338   52.1109   85.5459 C.2         1 DVA       0.2058
     47 O          40.8694   51.7147   85.0867 O.2         1 DVA      -0.3942
     48 CB         41.4892   54.6349   85.5390 C.3         1 DVA       0.0163
     49 CG         41.2911   54.4921   84.0704 C.ar        1 DVA      -0.0493
     50 CD1        42.3990   54.4155   83.1866 C.ar        1 DVA      -0.0685
     51 CD2        39.9910   54.3539   83.5358 C.ar        1 DVA      -0.0685
     52 CE1        42.2044   54.1970   81.8131 C.ar        1 DVA      -0.0398
     53 CE2        39.7978   54.1413   82.1622 C.ar        1 DVA      -0.0398
     54 CZ         40.9022   54.0492   81.2933 C.ar        1 DVA       0.0805
     55 OH         40.7270   53.8355   79.9631 O.3         1 DVA      -0.3376
     56 N          43.0654   51.4559   85.3134 N.am        1 DVA      -0.2620
     57 CA         43.2625   50.2704   84.5221 C.3         1 DVA       0.1423
     58 C          43.9652   50.6492   83.2992 C.2         1 DVA       0.2051
     59 O          43.3750   50.5406   82.2260 O.2         1 DVA      -0.3943
     60 CB         44.0286   49.2157   85.3812 C.3         1 DVA       0.0406
     61 CG         44.8069   48.2360   84.5922 C.2         1 DVA       0.0393
     62 OD1        46.1569   48.2674   84.6360 O.co2       1 DVA      -0.5688
     63 OD2        44.2187   47.4278   83.6847 O.co2       1 DVA      -0.5688
     64 N          45.2106   51.0981   83.3532 N.am        1 DVA      -0.2671
     65 CA         46.0637   51.4658   82.2569 C.3         1 DVA       0.1173
     66 C          46.3952   52.9003   82.3826 C.2         1 DVA       0.0623
     67 O          46.0126   53.7878   81.4373 O.co2       1 DVA      -0.5665
     68 OXT        46.9954   53.3804   83.4982 O.co2       1 DVA      -0.5665
     69 CB         47.3426   50.5972   82.2697 C.3         1 DVA       0.0789
     70 OG         47.0151   49.2206   82.4013 O.3         1 DVA      -0.3910
     71 H1         44.1349   61.3226   97.3990 H           1 DVA       0.2015
     72 H2         43.3202   59.8843   97.2005 H           1 DVA       0.2015
     73 H3         42.9263   60.8945   98.4667 H           1 DVA       0.2015
     74 H4         42.6643   61.4147   95.6407 H           1 DVA       0.1101
     75 H5         41.2269   63.4630   96.4570 H           1 DVA       0.0376
     76 H6         41.8197   64.4794   98.5756 H           1 DVA       0.0236
     77 H7         42.9705   63.1863   98.9545 H           1 DVA       0.0236
     78 H8         41.2323   62.8515   98.8959 H           1 DVA       0.0236
     79 H9         43.3036   63.7281   95.1844 H           1 DVA       0.0236
     80 H10        44.2719   63.5403   96.6621 H           1 DVA       0.0236
     81 H11        43.2055   64.9444   96.4643 H           1 DVA       0.0236
     82 H12        40.5835   62.4394   94.4329 H           1 DVA       0.0802
     83 H13        38.9069   61.2681   92.5820 H           1 DVA       0.0313
     84 H14        38.3598   62.3455   93.8828 H           1 DVA       0.0313
     85 H15        38.3123   59.3172   93.8197 H           1 DVA       0.0287
     86 H16        37.0564   60.4352   94.4046 H           1 DVA       0.0287
     87 H17        38.1451   60.7713   96.4643 H           1 DVA       0.0524
     88 H18        38.8433   59.1729   96.0915 H           1 DVA       0.0524
     89 H19        42.3666   62.2097   93.2144 H           1 DVA       0.1881
     90 H20        43.8862   59.9722   93.0033 H           1 DVA       0.0763
     91 H21        44.1053   61.4795   92.1064 H           1 DVA       0.0763
     92 H22        41.1841   60.3452   91.0413 H           1 DVA       0.1884
     93 H23        42.0554   59.0212   88.7305 H           1 DVA       0.0823
     94 H24        39.8661   60.0791   88.8105 H           1 DVA       0.0606
     95 H25        39.3408   59.0448   90.1393 H           1 DVA       0.0606
     96 H26        39.4794   57.2769   88.7868 H           1 DVA       0.2097
     97 H27        40.4036   57.8038   91.6297 H           1 DVA       0.1883
     98 H28        40.4443   55.9187   92.7743 H           1 DVA       0.0801
     99 H29        42.3319   57.4928   93.4918 H           1 DVA       0.0337
    100 H30        43.4466   56.4796   92.5906 H           1 DVA       0.0337
    101 H31        43.6158   55.7921   94.8782 H           1 DVA       0.0504
    102 H32        42.7427   54.5042   94.0781 H           1 DVA       0.0504
    103 H33        40.7850   56.8771   96.7454 H           1 DVA       0.1814
    104 H34        42.1127   57.5284   95.9588 H           1 DVA       0.1814
    105 H35        39.7171   54.8176   90.7068 H           1 DVA       0.1885
    106 H36        39.5693   53.2196   89.3530 H           1 DVA       0.0817
    107 H37        41.1643   51.0390   90.1638 H           1 DVA       0.0420
    108 H38        39.4896   51.3683   90.5013 H           1 DVA       0.0420
    109 H39        42.8765   52.1947   92.2740 H           1 DVA       0.0729
    110 H40        40.0053   51.4330   95.1115 H           1 DVA       0.1199
    111 H41        42.4231   51.9301   94.7280 H           1 DVA       0.2361
    112 H42        40.2316   52.9760   87.3210 H           1 DVA       0.1885
    113 H43        43.0123   53.5532   86.6065 H           1 DVA       0.0821
    114 H44        42.2156   55.4410   85.7015 H           1 DVA       0.0453
    115 H45        40.5580   54.9961   85.9868 H           1 DVA       0.0453
    116 H46        43.3501   54.5019   83.5498 H           1 DVA       0.0530
    117 H47        39.1711   54.3878   84.1422 H           1 DVA       0.0530
    118 H48        43.0133   54.1360   81.1846 H           1 DVA       0.0525
    119 H49        38.8527   54.0412   81.7989 H           1 DVA       0.0525
    120 H50        39.7575   53.7563   79.8289 H           1 DVA       0.2458
    121 H51        43.8740   51.8446   85.6861 H           1 DVA       0.1884
    122 H52        42.2972   49.8231   84.2571 H           1 DVA       0.0819
    123 H53        43.3069   48.6664   85.9974 H           1 DVA       0.0478
    124 H54        44.7096   49.7334   86.0641 H           1 DVA       0.0478
    125 H55        45.6028   51.1738   84.2411 H           1 DVA       0.1876
    126 H56        45.5644   51.3178   81.2928 H           1 DVA       0.0749
    127 H57        47.9904   50.8674   83.1089 H           1 DVA       0.0599
    128 H58        47.8987   50.7424   81.3433 H           1 DVA       0.0599
    129 H59        46.3891   49.0093   81.6869 H           1 DVA       0.2096
@<TRIPOS>BOND
     1     1     2   1
     2     2     3   1
     3     2     6   1
     4     3     4   1
     5     3     5   1
     6     6     7   2
     7     6     8  am
     8     8     9   1
     9     8    12   1
    10     9    10   1
    11     9    13   1
    12    10    11   1
    13    11    12   1
    14    13    14   2
    15    13    15  am
    16    15    16   1
    17    16    17   1
    18    17    18   2
    19    17    19  am
    20    19    20   1
    21    20    21   1
    22    20    23   1
    23    21    22   2
    24    21    25  am
    25    23    24   1
    26    25    26   1
    27    26    27   1
    28    26    29   1
    29    27    28   2
    30    27    34  am
    31    29    30   1
    32    30    31   1
    33    31    32   2
    34    31    33  am
    35    34    35   1
    36    35    36   1
    37    35    38   1
    38    36    37   2
    39    36    44  am
    40    38    39   1
    41    39    40   1
    42    39    41   2
    43    40    42   2
    44    41    43   1
    45    42    43   1
    46    44    45   1
    47    45    46   1
    48    45    48   1
    49    46    47   2
    50    46    56  am
    51    48    49   1
    52    49    50  ar
    53    49    51  ar
    54    50    52  ar
    55    51    53  ar
    56    52    54  ar
    57    53    54  ar
    58    54    55   1
    59    56    57   1
    60    57    58   1
    61    57    60   1
    62    58    59   2
    63    58    64  am
    64    60    61   1
    65    61    62  ar
    66    61    63  ar
    67    64    65   1
    68    65    66   1
    69    65    69   1
    70    66    67  ar
    71    66    68  ar
    72    69    70   1
    73     1    71   1
    74     1    72   1
    75     1    73   1
    76     2    74   1
    77     3    75   1
    78     4    76   1
    79     4    77   1
    80     4    78   1
    81     5    79   1
    82     5    80   1
    83     5    81   1
    84     9    82   1
    85    10    83   1
    86    10    84   1
    87    11    85   1
    88    11    86   1
    89    12    87   1
    90    12    88   1
    91    15    89   1
    92    16    90   1
    93    16    91   1
    94    19    92   1
    95    20    93   1
    96    23    94   1
    97    23    95   1
    98    24    96   1
    99    25    97   1
   100    26    98   1
   101    29    99   1
   102    29   100   1
   103    30   101   1
   104    30   102   1
   105    33   103   1
   106    33   104   1
   107    34   105   1
   108    35   106   1
   109    38   107   1
   110    38   108   1
   111    41   109   1
   112    42   110   1
   113    43   111   1
   114    44   112   1
   115    45   113   1
   116    48   114   1
   117    48   115   1
   118    50   116   1
   119    51   117   1
   120    52   118   1
   121    53   119   1
   122    55   120   1
   123    56   121   1
   124    57   122   1
   125    60   123   1
   126    60   124   1
   127    64   125   1
   128    65   126   1
   129    69   127   1
   130    69   128   1
   131    70   129   1
@<TRIPOS>SUBSTRUCTURE
     1  DVA      2

