@<TRIPOS>MOLECULE
1zea_ligand_032
   129   131
SMALL
GAST_HUCK
****
This file was generated by PARSER (from files_GN.cpp)

@<TRIPOS>ATOM
      1 N          40.1480   58.3341   91.0213 N.4         1 DVA       0.2381
      2 CA         41.1658   59.0981   90.2662 C.3         1 DVA       0.0675
      3 CB         40.6898   59.3600   88.7873 C.3         1 DVA       0.0139
      4 CG1        41.1473   58.3033   87.7472 C.3         1 DVA      -0.0553
      5 CG2        39.1565   59.5503   88.6627 C.3         1 DVA      -0.0553
      6 C          42.5804   58.6537   90.3735 C.2         1 DVA       0.2295
      7 O          43.3598   59.4636   89.8742 O.2         1 DVA      -0.3905
      8 N          43.1268   57.5666   90.9620 N.am        1 DVA      -0.2471
      9 CA         42.4500   56.4612   91.6142 C.3         1 DVA       0.1339
     10 CB         43.5703   55.5709   92.2203 C.3         1 DVA      -0.0104
     11 CG         44.7762   56.5048   92.3079 C.3         1 DVA      -0.0281
     12 CD         44.5596   57.4266   91.1028 C.3         1 DVA       0.0371
     13 C          41.5810   55.6388   90.7733 C.2         1 DVA       0.2039
     14 O          40.7214   54.9535   91.3236 O.2         1 DVA      -0.3944
     15 N          41.7330   55.5978   89.4608 N.am        1 DVA      -0.2664
     16 CA         40.9148   54.8572   88.5414 C.3         1 DVA       0.1201
     17 C          41.2584   55.0823   87.1496 C.2         1 DVA       0.2008
     18 O          42.2008   55.8019   86.8493 O.2         1 DVA      -0.3947
     19 N          40.5347   54.4853   86.2031 N.am        1 DVA      -0.2618
     20 CA         40.6729   54.6740   84.7800 C.3         1 DVA       0.1539
     21 C          41.9956   54.2852   84.3125 C.2         1 DVA       0.2062
     22 O          42.6047   55.0334   83.5595 O.2         1 DVA      -0.3943
     23 CB         39.5697   53.8945   84.0068 C.3         1 DVA       0.0843
     24 OG         39.4062   54.3839   82.6733 O.3         1 DVA      -0.3903
     25 N          42.5720   53.2212   84.8467 N.am        1 DVA      -0.2635
     26 CA         43.9593   52.8707   84.7643 C.3         1 DVA       0.1330
     27 C          44.4676   52.8710   86.1346 C.2         1 DVA       0.2041
     28 O          45.3276   53.6934   86.4305 O.2         1 DVA      -0.3944
     29 CB         44.1204   51.5085   84.0272 C.3         1 DVA       0.0045
     30 CG         43.9804   51.5796   82.4749 C.3         1 DVA       0.0412
     31 CD         42.9623   52.4914   81.9830 C.2         1 DVA       0.1737
     32 OE1        41.7722   52.2509   82.1717 O.2         1 DVA      -0.3973
     33 NE2        43.2697   53.5759   81.3079 N.am        1 DVA      -0.3009
     34 N          43.9945   52.0105   87.0366 N.am        1 DVA      -0.2625
     35 CA         44.4622   51.7882   88.3853 C.3         1 DVA       0.1369
     36 C          45.9258   51.7061   88.4160 C.2         1 DVA       0.2055
     37 O          46.5863   52.7259   88.5632 O.2         1 DVA      -0.3942
     38 CB         43.8583   52.7981   89.4271 C.3         1 DVA       0.0145
     39 CG         42.7714   52.2641   90.2792 C.2         1 DVA      -0.0027
     40 ND1        42.4578   52.7663   91.4894 N.2         1 DVA      -0.3252
     41 CD2        41.8807   51.2250   90.0059 C.2         1 DVA       0.0291
     42 CE1        41.4086   52.0606   91.9506 C.2         1 DVA       0.0907
     43 NE2        41.0584   51.1217   91.0556 N.pl3       1 DVA      -0.2752
     44 N          46.5129   50.5415   88.1662 N.am        1 DVA      -0.2620
     45 CA         47.9077   50.2924   87.9296 C.3         1 DVA       0.1390
     46 C          48.4253   49.7137   89.1639 C.2         1 DVA       0.2058
     47 O          49.1019   50.4062   89.9150 O.2         1 DVA      -0.3942
     48 CB         48.1668   49.3897   86.6685 C.3         1 DVA       0.0163
     49 CG         47.0470   49.2101   85.6873 C.ar        1 DVA      -0.0493
     50 CD1        47.2063   49.5219   84.3164 C.ar        1 DVA      -0.0685
     51 CD2        45.8354   48.5965   86.0909 C.ar        1 DVA      -0.0685
     52 CE1        46.2015   49.2086   83.3798 C.ar        1 DVA      -0.0398
     53 CE2        44.8254   48.2942   85.1594 C.ar        1 DVA      -0.0398
     54 CZ         45.0081   48.5943   83.8000 C.ar        1 DVA       0.0805
     55 OH         44.0147   48.3119   82.9191 O.3         1 DVA      -0.3376
     56 N          48.0834   48.4686   89.4927 N.am        1 DVA      -0.2620
     57 CA         48.3591   47.7478   90.7054 C.3         1 DVA       0.1423
     58 C          49.7903   47.6425   90.9925 C.2         1 DVA       0.2051
     59 O          50.2246   47.8964   92.1095 O.2         1 DVA      -0.3943
     60 CB         47.4241   48.2091   91.8723 C.3         1 DVA       0.0406
     61 CG         47.2015   49.6671   91.9494 C.2         1 DVA       0.0393
     62 OD1        47.6931   50.3814   92.9852 O.co2       1 DVA      -0.5688
     63 OD2        46.2574   50.2302   91.1612 O.co2       1 DVA      -0.5688
     64 N          50.5908   47.2415   90.0144 N.am        1 DVA      -0.2671
     65 CA         51.9999   46.9653   90.0469 C.3         1 DVA       0.1173
     66 C          52.8081   48.1998   90.0981 C.2         1 DVA       0.0623
     67 O          53.5406   48.5844   89.0266 O.co2       1 DVA      -0.5665
     68 OXT        52.9079   48.9378   91.2269 O.co2       1 DVA      -0.5665
     69 CB         52.3876   45.9468   91.1514 C.3         1 DVA       0.0789
     70 OG         51.3990   44.9223   91.2349 O.3         1 DVA      -0.3910
     71 H1         39.2650   58.8638   91.0078 H           1 DVA       0.2015
     72 H2         40.4431   58.2192   91.9989 H           1 DVA       0.2015
     73 H3         39.9923   57.4184   90.5860 H           1 DVA       0.2015
     74 H4         41.1537   60.0718   90.7733 H           1 DVA       0.1101
     75 H5         41.1395   60.3112   88.4813 H           1 DVA       0.0376
     76 H6         40.8646   58.6260   86.7393 H           1 DVA       0.0236
     77 H7         40.6631   57.3496   87.9544 H           1 DVA       0.0236
     78 H8         42.2329   58.1843   87.7737 H           1 DVA       0.0236
     79 H9         38.8137   60.3245   89.3480 H           1 DVA       0.0236
     80 H10        38.6274   58.6184   88.8726 H           1 DVA       0.0236
     81 H11        38.9052   59.8554   87.6488 H           1 DVA       0.0236
     82 H12        41.8737   56.8758   92.4488 H           1 DVA       0.0802
     83 H13        43.8298   54.7291   91.5691 H           1 DVA       0.0313
     84 H14        43.2872   55.1786   93.2049 H           1 DVA       0.0313
     85 H15        45.7198   55.9603   92.2482 H           1 DVA       0.0287
     86 H16        44.7410   57.0754   93.2366 H           1 DVA       0.0287
     87 H17        45.0772   58.3725   91.2992 H           1 DVA       0.0524
     88 H18        44.9735   56.9804   90.1952 H           1 DVA       0.0524
     89 H19        42.4452   56.1346   89.0834 H           1 DVA       0.1881
     90 H20        39.8685   55.1552   88.6836 H           1 DVA       0.0763
     91 H21        41.0010   53.7908   88.7561 H           1 DVA       0.0763
     92 H22        39.8334   53.8774   86.4866 H           1 DVA       0.1884
     93 H23        40.5027   55.7385   84.5796 H           1 DVA       0.0823
     94 H24        38.6059   53.9962   84.5234 H           1 DVA       0.0606
     95 H25        39.8175   52.8300   83.9505 H           1 DVA       0.0606
     96 H26        38.9318   55.2361   82.7757 H           1 DVA       0.2097
     97 H27        42.0265   52.6700   85.4348 H           1 DVA       0.1883
     98 H28        44.5261   53.6136   84.1897 H           1 DVA       0.0801
     99 H29        43.4041   50.7827   84.4265 H           1 DVA       0.0337
    100 H30        45.1233   51.1200   84.2298 H           1 DVA       0.0337
    101 H31        43.7461   50.5792   82.1019 H           1 DVA       0.0504
    102 H32        44.9569   51.8608   82.0624 H           1 DVA       0.0504
    103 H33        42.5645   54.1635   80.9805 H           1 DVA       0.1814
    104 H34        44.2026   53.7923   81.1296 H           1 DVA       0.1814
    105 H35        43.2637   51.4317   86.7422 H           1 DVA       0.1885
    106 H36        44.0806   50.7930   88.6384 H           1 DVA       0.0817
    107 H37        43.4582   53.6747   88.9080 H           1 DVA       0.0420
    108 H38        44.6417   53.1626   90.0957 H           1 DVA       0.0420
    109 H39        41.8565   50.6377   89.1654 H           1 DVA       0.0729
    110 H40        40.9555   52.2059   92.8527 H           1 DVA       0.1199
    111 H41        40.3345   50.4773   91.1587 H           1 DVA       0.2361
    112 H42        45.9322   49.7613   88.1178 H           1 DVA       0.1885
    113 H43        48.4219   51.2415   87.7381 H           1 DVA       0.0821
    114 H44        48.4629   48.3846   86.9673 H           1 DVA       0.0453
    115 H45        49.0429   49.7949   86.1559 H           1 DVA       0.0453
    116 H46        48.0612   49.9706   83.9876 H           1 DVA       0.0530
    117 H47        45.6986   48.3179   87.0657 H           1 DVA       0.0530
    118 H48        46.3517   49.4267   82.3934 H           1 DVA       0.0525
    119 H49        43.9640   47.8414   85.4739 H           1 DVA       0.0525
    120 H50        44.4364   48.2089   82.0436 H           1 DVA       0.2458
    121 H51        47.6107   47.9666   88.8092 H           1 DVA       0.1884
    122 H52        48.0523   46.7205   90.4912 H           1 DVA       0.0819
    123 H53        47.8269   47.8528   92.8234 H           1 DVA       0.0478
    124 H54        46.4459   47.7315   91.7509 H           1 DVA       0.0478
    125 H55        50.1578   47.0859   89.1608 H           1 DVA       0.1876
    126 H56        52.2130   46.4752   89.0916 H           1 DVA       0.0749
    127 H57        52.4745   46.4350   92.1249 H           1 DVA       0.0599
    128 H58        53.3504   45.4878   90.9063 H           1 DVA       0.0599
    129 H59        51.6478   44.3943   92.0266 H           1 DVA       0.2096
@<TRIPOS>BOND
     1     1     2   1
     2     2     3   1
     3     2     6   1
     4     3     4   1
     5     3     5   1
     6     6     7   2
     7     6     8  am
     8     8     9   1
     9     8    12   1
    10     9    10   1
    11     9    13   1
    12    10    11   1
    13    11    12   1
    14    13    14   2
    15    13    15  am
    16    15    16   1
    17    16    17   1
    18    17    18   2
    19    17    19  am
    20    19    20   1
    21    20    21   1
    22    20    23   1
    23    21    22   2
    24    21    25  am
    25    23    24   1
    26    25    26   1
    27    26    27   1
    28    26    29   1
    29    27    28   2
    30    27    34  am
    31    29    30   1
    32    30    31   1
    33    31    32   2
    34    31    33  am
    35    34    35   1
    36    35    36   1
    37    35    38   1
    38    36    37   2
    39    36    44  am
    40    38    39   1
    41    39    40   1
    42    39    41   2
    43    40    42   2
    44    41    43   1
    45    42    43   1
    46    44    45   1
    47    45    46   1
    48    45    48   1
    49    46    47   2
    50    46    56  am
    51    48    49   1
    52    49    50  ar
    53    49    51  ar
    54    50    52  ar
    55    51    53  ar
    56    52    54  ar
    57    53    54  ar
    58    54    55   1
    59    56    57   1
    60    57    58   1
    61    57    60   1
    62    58    59   2
    63    58    64  am
    64    60    61   1
    65    61    62  ar
    66    61    63  ar
    67    64    65   1
    68    65    66   1
    69    65    69   1
    70    66    67  ar
    71    66    68  ar
    72    69    70   1
    73     1    71   1
    74     1    72   1
    75     1    73   1
    76     2    74   1
    77     3    75   1
    78     4    76   1
    79     4    77   1
    80     4    78   1
    81     5    79   1
    82     5    80   1
    83     5    81   1
    84     9    82   1
    85    10    83   1
    86    10    84   1
    87    11    85   1
    88    11    86   1
    89    12    87   1
    90    12    88   1
    91    15    89   1
    92    16    90   1
    93    16    91   1
    94    19    92   1
    95    20    93   1
    96    23    94   1
    97    23    95   1
    98    24    96   1
    99    25    97   1
   100    26    98   1
   101    29    99   1
   102    29   100   1
   103    30   101   1
   104    30   102   1
   105    33   103   1
   106    33   104   1
   107    34   105   1
   108    35   106   1
   109    38   107   1
   110    38   108   1
   111    41   109   1
   112    42   110   1
   113    43   111   1
   114    44   112   1
   115    45   113   1
   116    48   114   1
   117    48   115   1
   118    50   116   1
   119    51   117   1
   120    52   118   1
   121    53   119   1
   122    55   120   1
   123    56   121   1
   124    57   122   1
   125    60   123   1
   126    60   124   1
   127    64   125   1
   128    65   126   1
   129    69   127   1
   130    69   128   1
   131    70   129   1
@<TRIPOS>SUBSTRUCTURE
     1  DVA      2

