@<TRIPOS>MOLECULE
1zea_ligand_083
   129   131
SMALL
GAST_HUCK
****
This file was generated by PARSER (from files_GN.cpp)

@<TRIPOS>ATOM
      1 N          51.8680   56.0890   78.3839 N.4         1 DVA       0.2381
      2 CA         50.8552   55.0626   78.0711 C.3         1 DVA       0.0675
      3 CB         51.4494   53.8959   77.2026 C.3         1 DVA       0.0139
      4 CG1        52.3391   52.9363   78.0424 C.3         1 DVA      -0.0553
      5 CG2        50.3506   53.0696   76.4674 C.3         1 DVA      -0.0553
      6 C          49.7201   55.7421   77.4384 C.2         1 DVA       0.2295
      7 O          49.9641   56.2677   76.3545 O.2         1 DVA      -0.3905
      8 N          48.4790   55.8578   77.9476 N.am        1 DVA      -0.2471
      9 CA         48.0563   55.4300   79.2590 C.3         1 DVA       0.1339
     10 CB         46.5092   55.4852   79.2302 C.3         1 DVA      -0.0104
     11 CG         46.1871   56.5112   78.1356 C.3         1 DVA      -0.0281
     12 CD         47.4061   56.4540   77.1997 C.3         1 DVA       0.0371
     13 C          48.6186   56.2951   80.2919 C.2         1 DVA       0.2039
     14 O          48.6876   57.4991   80.0740 O.2         1 DVA      -0.3944
     15 N          49.0216   55.7912   81.4541 N.am        1 DVA      -0.2664
     16 CA         49.5214   56.5420   82.5683 C.3         1 DVA       0.1201
     17 C          48.4611   56.9174   83.4884 C.2         1 DVA       0.2008
     18 O          48.4719   56.4448   84.6210 O.2         1 DVA      -0.3947
     19 N          47.4920   57.7337   83.0852 N.am        1 DVA      -0.2618
     20 CA         46.3584   58.2162   83.8203 C.3         1 DVA       0.1539
     21 C          45.6663   57.1230   84.4999 C.2         1 DVA       0.2062
     22 O          45.4591   57.2028   85.7082 O.2         1 DVA      -0.3943
     23 CB         46.7134   59.4629   84.6820 C.3         1 DVA       0.0843
     24 OG         47.6091   59.1744   85.7573 O.3         1 DVA      -0.3903
     25 N          45.2846   56.0545   83.8076 N.am        1 DVA      -0.2635
     26 CA         44.6955   54.8219   84.2778 C.3         1 DVA       0.1330
     27 C          43.8640   55.0211   85.4650 C.2         1 DVA       0.2041
     28 O          44.4180   54.9577   86.5602 O.2         1 DVA      -0.3944
     29 CB         43.9755   54.1340   83.0660 C.3         1 DVA       0.0045
     30 CG         43.1144   52.8616   83.3490 C.3         1 DVA       0.0412
     31 CD         41.7199   53.1078   83.6676 C.2         1 DVA       0.1737
     32 OE1        41.0970   53.9737   83.0621 O.2         1 DVA      -0.3973
     33 NE2        41.0730   52.4044   84.5681 N.am        1 DVA      -0.3009
     34 N          42.5907   55.3760   85.3822 N.am        1 DVA      -0.2625
     35 CA         41.6503   55.7209   86.4268 C.3         1 DVA       0.1369
     36 C          41.3289   54.6290   87.3547 C.2         1 DVA       0.2055
     37 O          40.1744   54.5128   87.7625 O.2         1 DVA      -0.3942
     38 CB         42.0506   57.0444   87.1536 C.3         1 DVA       0.0145
     39 CG         40.9452   57.7400   87.8652 C.2         1 DVA      -0.0027
     40 ND1        39.6541   57.3557   87.9304 N.2         1 DVA      -0.3252
     41 CD2        41.0471   58.9493   88.5523 C.2         1 DVA       0.0291
     42 CE1        38.9840   58.2931   88.6266 C.2         1 DVA       0.0907
     43 NE2        39.8273   59.2598   89.0042 N.pl3       1 DVA      -0.2752
     44 N          42.3110   53.8803   87.8548 N.am        1 DVA      -0.2620
     45 CA         42.1894   52.8148   88.8187 C.3         1 DVA       0.1390
     46 C          43.3314   51.8863   88.7526 C.2         1 DVA       0.2058
     47 O          43.5817   51.1963   89.7457 O.2         1 DVA      -0.3942
     48 CB         42.0241   53.4567   90.2521 C.3         1 DVA       0.0163
     49 CG         40.8803   52.8774   91.0130 C.ar        1 DVA      -0.0493
     50 CD1        41.0809   51.9825   92.0909 C.ar        1 DVA      -0.0685
     51 CD2        39.5538   53.2044   90.6418 C.ar        1 DVA      -0.0685
     52 CE1        39.9811   51.4293   92.7774 C.ar        1 DVA      -0.0398
     53 CE2        38.4583   52.6549   91.3281 C.ar        1 DVA      -0.0398
     54 CZ         38.6645   51.7605   92.3956 C.ar        1 DVA       0.0805
     55 OH         37.6054   51.2473   93.0561 O.3         1 DVA      -0.3376
     56 N          44.1072   51.7694   87.6689 N.am        1 DVA      -0.2620
     57 CA         45.2916   50.9485   87.5305 C.3         1 DVA       0.1423
     58 C          45.5725   50.6917   86.1157 C.2         1 DVA       0.2051
     59 O          46.0982   51.5672   85.4394 O.2         1 DVA      -0.3943
     60 CB         46.5264   51.6273   88.1990 C.3         1 DVA       0.0406
     61 CG         46.4139   51.7268   89.6650 C.2         1 DVA       0.0393
     62 OD1        46.1639   50.6248   90.4089 O.co2       1 DVA      -0.5688
     63 OD2        46.6664   52.8929   90.2996 O.co2       1 DVA      -0.5688
     64 N          45.3437   49.4832   85.5998 N.am        1 DVA      -0.2671
     65 CA         45.6155   49.0018   84.2729 C.3         1 DVA       0.1173
     66 C          44.5840   49.4611   83.3084 C.2         1 DVA       0.0623
     67 O          44.8180   50.5112   82.4875 O.co2       1 DVA      -0.5665
     68 OXT        43.6356   48.5789   82.9166 O.co2       1 DVA      -0.5665
     69 CB         47.0801   49.2689   83.8077 C.3         1 DVA       0.0789
     70 OG         47.4201   48.4499   82.6861 O.3         1 DVA      -0.3910
     71 H1         52.6262   55.6746   78.9281 H           1 DVA       0.2015
     72 H2         51.4360   56.8362   78.9326 H           1 DVA       0.2015
     73 H3         52.2432   56.4800   77.5164 H           1 DVA       0.2015
     74 H4         50.5701   54.6261   79.0280 H           1 DVA       0.1101
     75 H5         52.0945   54.3326   76.4321 H           1 DVA       0.0376
     76 H6         52.7691   52.1575   77.4092 H           1 DVA       0.0236
     77 H7         51.7527   52.4575   78.8290 H           1 DVA       0.0236
     78 H8         53.1657   53.4761   78.5044 H           1 DVA       0.0236
     79 H9         49.8060   53.6975   75.7598 H           1 DVA       0.0236
     80 H10        49.6367   52.6517   77.1814 H           1 DVA       0.0236
     81 H11        50.7982   52.2489   75.9001 H           1 DVA       0.0236
     82 H12        48.3334   54.3822   79.4336 H           1 DVA       0.0802
     83 H13        46.0628   55.7645   80.1912 H           1 DVA       0.0313
     84 H14        46.1080   54.5095   78.9396 H           1 DVA       0.0313
     85 H15        46.0904   57.5088   78.5783 H           1 DVA       0.0287
     86 H16        45.2596   56.2601   77.6131 H           1 DVA       0.0287
     87 H17        47.1788   55.8456   76.3205 H           1 DVA       0.0524
     88 H18        47.6660   57.4664   76.8764 H           1 DVA       0.0524
     89 H19        48.9545   54.8295   81.5703 H           1 DVA       0.1881
     90 H20        50.0435   57.4437   82.2300 H           1 DVA       0.0763
     91 H21        50.2649   55.9164   83.0724 H           1 DVA       0.0763
     92 H22        47.5479   58.0401   82.1663 H           1 DVA       0.1884
     93 H23        45.6628   58.5987   83.0622 H           1 DVA       0.0823
     94 H24        45.7929   59.8872   85.0938 H           1 DVA       0.0606
     95 H25        47.1778   60.2173   84.0385 H           1 DVA       0.0606
     96 H26        47.7273   60.0358   86.2113 H           1 DVA       0.2097
     97 H27        45.4994   56.0740   82.8602 H           1 DVA       0.1883
     98 H28        45.5266   54.1623   84.5514 H           1 DVA       0.0801
     99 H29        44.7664   53.8373   82.3602 H           1 DVA       0.0337
    100 H30        43.3612   54.8755   82.5438 H           1 DVA       0.0337
    101 H31        43.5880   52.2885   84.1494 H           1 DVA       0.0504
    102 H32        43.1193   52.2386   82.4491 H           1 DVA       0.0504
    103 H33        40.1336   52.5876   84.7359 H           1 DVA       0.1814
    104 H34        41.5197   51.6881   85.0565 H           1 DVA       0.1814
    105 H35        42.2243   55.4064   84.4804 H           1 DVA       0.1885
    106 H36        40.7374   55.9516   85.8643 H           1 DVA       0.0817
    107 H37        42.4374   57.7505   86.4054 H           1 DVA       0.0420
    108 H38        42.8563   56.8499   87.8708 H           1 DVA       0.0420
    109 H39        41.8943   59.5094   88.6779 H           1 DVA       0.0729
    110 H40        37.9875   58.2798   88.8263 H           1 DVA       0.1199
    111 H41        39.5899   60.0514   89.5112 H           1 DVA       0.2361
    112 H42        43.2273   54.1125   87.6011 H           1 DVA       0.1885
    113 H43        41.3066   52.2017   88.5761 H           1 DVA       0.0821
    114 H44        41.8488   54.5371   90.1777 H           1 DVA       0.0453
    115 H45        42.9560   53.3615   90.8341 H           1 DVA       0.0453
    116 H46        42.0305   51.7260   92.3762 H           1 DVA       0.0530
    117 H47        39.3776   53.8559   89.8695 H           1 DVA       0.0530
    118 H48        40.1419   50.7832   93.5513 H           1 DVA       0.0525
    119 H49        37.5119   52.9014   91.0401 H           1 DVA       0.0525
    120 H50        37.4180   50.3966   92.6059 H           1 DVA       0.2458
    121 H51        43.8713   52.3016   86.8834 H           1 DVA       0.1884
    122 H52        45.1291   49.9841   88.0233 H           1 DVA       0.0819
    123 H53        46.6600   52.6309   87.7795 H           1 DVA       0.0478
    124 H54        47.4355   51.0532   87.9801 H           1 DVA       0.0478
    125 H55        44.9455   48.8265   86.1997 H           1 DVA       0.1876
    126 H56        45.5223   47.9163   84.3515 H           1 DVA       0.0749
    127 H57        47.7779   49.0251   84.6145 H           1 DVA       0.0599
    128 H58        47.2233   50.3204   83.5390 H           1 DVA       0.0599
    129 H59        46.6525   48.4848   82.0753 H           1 DVA       0.2096
@<TRIPOS>BOND
     1     1     2   1
     2     2     3   1
     3     2     6   1
     4     3     4   1
     5     3     5   1
     6     6     7   2
     7     6     8  am
     8     8     9   1
     9     8    12   1
    10     9    10   1
    11     9    13   1
    12    10    11   1
    13    11    12   1
    14    13    14   2
    15    13    15  am
    16    15    16   1
    17    16    17   1
    18    17    18   2
    19    17    19  am
    20    19    20   1
    21    20    21   1
    22    20    23   1
    23    21    22   2
    24    21    25  am
    25    23    24   1
    26    25    26   1
    27    26    27   1
    28    26    29   1
    29    27    28   2
    30    27    34  am
    31    29    30   1
    32    30    31   1
    33    31    32   2
    34    31    33  am
    35    34    35   1
    36    35    36   1
    37    35    38   1
    38    36    37   2
    39    36    44  am
    40    38    39   1
    41    39    40   1
    42    39    41   2
    43    40    42   2
    44    41    43   1
    45    42    43   1
    46    44    45   1
    47    45    46   1
    48    45    48   1
    49    46    47   2
    50    46    56  am
    51    48    49   1
    52    49    50  ar
    53    49    51  ar
    54    50    52  ar
    55    51    53  ar
    56    52    54  ar
    57    53    54  ar
    58    54    55   1
    59    56    57   1
    60    57    58   1
    61    57    60   1
    62    58    59   2
    63    58    64  am
    64    60    61   1
    65    61    62  ar
    66    61    63  ar
    67    64    65   1
    68    65    66   1
    69    65    69   1
    70    66    67  ar
    71    66    68  ar
    72    69    70   1
    73     1    71   1
    74     1    72   1
    75     1    73   1
    76     2    74   1
    77     3    75   1
    78     4    76   1
    79     4    77   1
    80     4    78   1
    81     5    79   1
    82     5    80   1
    83     5    81   1
    84     9    82   1
    85    10    83   1
    86    10    84   1
    87    11    85   1
    88    11    86   1
    89    12    87   1
    90    12    88   1
    91    15    89   1
    92    16    90   1
    93    16    91   1
    94    19    92   1
    95    20    93   1
    96    23    94   1
    97    23    95   1
    98    24    96   1
    99    25    97   1
   100    26    98   1
   101    29    99   1
   102    29   100   1
   103    30   101   1
   104    30   102   1
   105    33   103   1
   106    33   104   1
   107    34   105   1
   108    35   106   1
   109    38   107   1
   110    38   108   1
   111    41   109   1
   112    42   110   1
   113    43   111   1
   114    44   112   1
   115    45   113   1
   116    48   114   1
   117    48   115   1
   118    50   116   1
   119    51   117   1
   120    52   118   1
   121    53   119   1
   122    55   120   1
   123    56   121   1
   124    57   122   1
   125    60   123   1
   126    60   124   1
   127    64   125   1
   128    65   126   1
   129    69   127   1
   130    69   128   1
   131    70   129   1
@<TRIPOS>SUBSTRUCTURE
     1  DVA      2

