@<TRIPOS>MOLECULE
1zea_ligand_008
   129   131
SMALL
GAST_HUCK
****
This file was generated by PARSER (from files_GN.cpp)

@<TRIPOS>ATOM
      1 N          46.7768   61.3937   78.7155 N.4         1 DVA       0.2381
      2 CA         47.9883   60.6043   78.4216 C.3         1 DVA       0.0675
      3 CB         49.2482   61.5305   78.3152 C.3         1 DVA       0.0139
      4 CG1        49.6516   62.1127   79.6985 C.3         1 DVA      -0.0553
      5 CG2        50.4825   60.8183   77.6854 C.3         1 DVA      -0.0553
      6 C          47.7247   59.8159   77.2106 C.2         1 DVA       0.2295
      7 O          47.4151   60.4734   76.2204 O.2         1 DVA      -0.3905
      8 N          47.8551   58.4789   77.0900 N.am        1 DVA      -0.2471
      9 CA         48.2419   57.5560   78.1340 C.3         1 DVA       0.1339
     10 CB         48.6273   56.2551   77.3918 C.3         1 DVA      -0.0104
     11 CG         47.8126   56.3119   76.0955 C.3         1 DVA      -0.0281
     12 CD         47.6851   57.8177   75.8218 C.3         1 DVA       0.0371
     13 C          47.1749   57.3450   79.1124 C.2         1 DVA       0.2039
     14 O          46.0233   57.1835   78.7130 O.2         1 DVA      -0.3944
     15 N          47.4526   57.3356   80.4129 N.am        1 DVA      -0.2664
     16 CA         46.5219   57.2266   81.4957 C.3         1 DVA       0.1201
     17 C          46.9272   56.2192   82.4491 C.2         1 DVA       0.2008
     18 O          47.2276   56.5756   83.5883 O.2         1 DVA      -0.3947
     19 N          46.9060   54.9358   82.1117 N.am        1 DVA      -0.2618
     20 CA         47.1177   53.7929   82.9660 C.3         1 DVA       0.1539
     21 C          46.0034   52.8511   82.8819 C.2         1 DVA       0.2062
     22 O          45.3903   52.6899   81.8280 O.2         1 DVA      -0.3943
     23 CB         48.4601   53.1027   82.5907 C.3         1 DVA       0.0843
     24 OG         48.8776   52.1923   83.6061 O.3         1 DVA      -0.3903
     25 N          45.7011   52.1176   83.9488 N.am        1 DVA      -0.2635
     26 CA         44.7001   51.0944   84.0852 C.3         1 DVA       0.1330
     27 C          43.3582   51.6462   84.2395 C.2         1 DVA       0.2041
     28 O          42.4153   51.2270   83.5814 O.2         1 DVA      -0.3944
     29 CB         44.9051   49.9575   83.0072 C.3         1 DVA       0.0045
     30 CG         45.4759   48.6305   83.5876 C.3         1 DVA       0.0412
     31 CD         44.5554   47.9777   84.4999 C.2         1 DVA       0.1737
     32 OE1        43.6124   47.3304   84.0716 O.2         1 DVA      -0.3973
     33 NE2        44.6840   48.0815   85.8039 N.am        1 DVA      -0.3009
     34 N          43.1584   52.5719   85.1678 N.am        1 DVA      -0.2625
     35 CA         41.9072   53.1530   85.5940 C.3         1 DVA       0.1369
     36 C          41.9358   53.4642   87.0275 C.2         1 DVA       0.2055
     37 O          43.0064   53.6161   87.6201 O.2         1 DVA      -0.3942
     38 CB         41.6031   54.4365   84.7574 C.3         1 DVA       0.0145
     39 CG         41.4157   54.1654   83.3230 C.2         1 DVA      -0.0027
     40 ND1        42.3154   54.4069   82.3540 N.2         1 DVA      -0.3252
     41 CD2        40.3011   53.5880   82.7221 C.2         1 DVA       0.0291
     42 CE1        41.7811   53.9889   81.1934 C.2         1 DVA       0.0907
     43 NE2        40.5525   53.4992   81.4147 N.pl3       1 DVA      -0.2752
     44 N          40.7823   53.5808   87.6754 N.am        1 DVA      -0.2620
     45 CA         40.5508   53.8465   89.0728 C.3         1 DVA       0.1390
     46 C          40.6158   52.6414   89.8996 C.2         1 DVA       0.2058
     47 O          41.3199   51.6943   89.5687 O.2         1 DVA      -0.3942
     48 CB         41.4077   55.0280   89.6647 C.3         1 DVA       0.0163
     49 CG         40.8057   56.3733   89.4517 C.ar        1 DVA      -0.0493
     50 CD1        40.4539   56.8109   88.1514 C.ar        1 DVA      -0.0685
     51 CD2        40.5773   57.2432   90.5463 C.ar        1 DVA      -0.0685
     52 CE1        39.8670   58.0737   87.9538 C.ar        1 DVA      -0.0398
     53 CE2        39.9972   58.5088   90.3456 C.ar        1 DVA      -0.0398
     54 CZ         39.6351   58.9194   89.0512 C.ar        1 DVA       0.0805
     55 OH         39.0719   60.1350   88.8741 O.3         1 DVA      -0.3376
     56 N          39.8935   52.5902   91.0151 N.am        1 DVA      -0.2620
     57 CA         39.7499   51.4860   91.9232 C.3         1 DVA       0.1423
     58 C          40.4474   51.8273   93.1591 C.2         1 DVA       0.2051
     59 O          39.8199   52.0213   94.1938 O.2         1 DVA      -0.3943
     60 CB         38.2227   51.1784   92.0324 C.3         1 DVA       0.0406
     61 CG         37.9282   49.8993   92.7102 C.2         1 DVA       0.0393
     62 OD1        37.6798   49.8763   94.0422 O.co2       1 DVA      -0.5688
     63 OD2        37.6292   48.7924   91.9931 O.co2       1 DVA      -0.5688
     64 N          41.7672   51.9438   93.1337 N.am        1 DVA      -0.2671
     65 CA         42.6288   52.2001   94.2492 C.3         1 DVA       0.1173
     66 C          43.7245   51.2002   94.2309 C.2         1 DVA       0.0623
     67 O          43.5814   50.0186   94.8883 O.co2       1 DVA      -0.5665
     68 OXT        44.7583   51.3176   93.3647 O.co2       1 DVA      -0.5665
     69 CB         43.1736   53.6491   94.1852 C.3         1 DVA       0.0789
     70 OG         43.8893   54.0110   95.3682 O.3         1 DVA      -0.3910
     71 H1         46.8710   61.8616   79.6190 H           1 DVA       0.2015
     72 H2         45.9563   60.7812   78.7435 H           1 DVA       0.2015
     73 H3         46.6395   62.0990   77.9852 H           1 DVA       0.2015
     74 H4         48.1271   59.9511   79.2826 H           1 DVA       0.1101
     75 H5         49.0022   62.3709   77.6663 H           1 DVA       0.0376
     76 H6         50.5040   62.7907   79.6014 H           1 DVA       0.0236
     77 H7         49.9297   61.3088   80.3897 H           1 DVA       0.0236
     78 H8         48.8295   62.6787   80.1413 H           1 DVA       0.0236
     79 H9         50.2761   60.5247   76.6529 H           1 DVA       0.0236
     80 H10        50.7476   59.9206   78.2543 H           1 DVA       0.0236
     81 H11        51.3501   61.4850   77.6668 H           1 DVA       0.0236
     82 H12        49.1471   57.9188   78.6281 H           1 DVA       0.0802
     83 H13        48.4157   55.3459   77.9627 H           1 DVA       0.0313
     84 H14        49.6919   56.2669   77.1448 H           1 DVA       0.0313
     85 H15        46.8219   55.8741   76.2574 H           1 DVA       0.0287
     86 H16        48.3099   55.7853   75.2755 H           1 DVA       0.0287
     87 H17        48.4688   58.1421   75.1287 H           1 DVA       0.0524
     88 H18        46.7072   58.0350   75.3820 H           1 DVA       0.0524
     89 H19        48.3853   57.4704   80.6606 H           1 DVA       0.1881
     90 H20        45.5153   56.9861   81.1491 H           1 DVA       0.0763
     91 H21        46.4728   58.2134   81.9617 H           1 DVA       0.0763
     92 H22        46.6750   54.7394   81.1868 H           1 DVA       0.1884
     93 H23        47.2023   54.1153   84.0098 H           1 DVA       0.0823
     94 H24        49.2426   53.8557   82.4747 H           1 DVA       0.0606
     95 H25        48.3588   52.5592   81.6480 H           1 DVA       0.0606
     96 H26        49.3194   51.4446   83.1547 H           1 DVA       0.2097
     97 H27        46.2329   52.2982   84.7472 H           1 DVA       0.1883
     98 H28        44.9229   50.6565   85.0620 H           1 DVA       0.0801
     99 H29        45.6005   50.2924   82.2271 H           1 DVA       0.0337
    100 H30        43.9789   49.7151   82.4802 H           1 DVA       0.0337
    101 H31        46.4287   48.8493   84.0839 H           1 DVA       0.0504
    102 H32        45.6943   47.9414   82.7646 H           1 DVA       0.0504
    103 H33        44.0473   47.6373   86.3858 H           1 DVA       0.1814
    104 H34        45.4053   48.6054   86.1881 H           1 DVA       0.1814
    105 H35        43.9558   52.8670   85.6523 H           1 DVA       0.1885
    106 H36        41.1037   52.4259   85.4494 H           1 DVA       0.0817
    107 H37        42.4262   55.1496   84.8814 H           1 DVA       0.0420
    108 H38        40.6957   54.9265   85.1210 H           1 DVA       0.0420
    109 H39        39.4356   53.2982   83.1913 H           1 DVA       0.0729
    110 H40        42.2332   54.0547   80.2836 H           1 DVA       0.1199
    111 H41        39.9472   53.1477   80.7370 H           1 DVA       0.2361
    112 H42        40.0032   53.3568   87.1412 H           1 DVA       0.1885
    113 H43        39.5060   54.1535   89.1030 H           1 DVA       0.0821
    114 H44        42.4113   55.0351   89.2331 H           1 DVA       0.0453
    115 H45        41.5526   54.8716   90.7410 H           1 DVA       0.0453
    116 H46        40.6260   56.2094   87.3409 H           1 DVA       0.0530
    117 H47        40.8226   56.9585   91.4964 H           1 DVA       0.0530
    118 H48        39.6142   58.3743   87.0121 H           1 DVA       0.0525
    119 H49        39.8355   59.1195   91.1493 H           1 DVA       0.0525
    120 H50        38.1472   59.9433   88.5976 H           1 DVA       0.2458
    121 H51        39.3864   53.3884   91.2338 H           1 DVA       0.1884
    122 H52        40.2262   50.5818   91.5292 H           1 DVA       0.0819
    123 H53        37.7963   51.1294   91.0277 H           1 DVA       0.0478
    124 H54        37.7076   51.9862   92.5550 H           1 DVA       0.0478
    125 H55        42.1939   51.8501   92.2712 H           1 DVA       0.1876
    126 H56        42.0951   52.0908   95.1972 H           1 DVA       0.0749
    127 H57        42.3348   54.3382   94.0881 H           1 DVA       0.0599
    128 H58        43.8287   53.7821   93.3187 H           1 DVA       0.0599
    129 H59        44.7211   53.4871   95.3457 H           1 DVA       0.2096
@<TRIPOS>BOND
     1     1     2   1
     2     2     3   1
     3     2     6   1
     4     3     4   1
     5     3     5   1
     6     6     7   2
     7     6     8  am
     8     8     9   1
     9     8    12   1
    10     9    10   1
    11     9    13   1
    12    10    11   1
    13    11    12   1
    14    13    14   2
    15    13    15  am
    16    15    16   1
    17    16    17   1
    18    17    18   2
    19    17    19  am
    20    19    20   1
    21    20    21   1
    22    20    23   1
    23    21    22   2
    24    21    25  am
    25    23    24   1
    26    25    26   1
    27    26    27   1
    28    26    29   1
    29    27    28   2
    30    27    34  am
    31    29    30   1
    32    30    31   1
    33    31    32   2
    34    31    33  am
    35    34    35   1
    36    35    36   1
    37    35    38   1
    38    36    37   2
    39    36    44  am
    40    38    39   1
    41    39    40   1
    42    39    41   2
    43    40    42   2
    44    41    43   1
    45    42    43   1
    46    44    45   1
    47    45    46   1
    48    45    48   1
    49    46    47   2
    50    46    56  am
    51    48    49   1
    52    49    50  ar
    53    49    51  ar
    54    50    52  ar
    55    51    53  ar
    56    52    54  ar
    57    53    54  ar
    58    54    55   1
    59    56    57   1
    60    57    58   1
    61    57    60   1
    62    58    59   2
    63    58    64  am
    64    60    61   1
    65    61    62  ar
    66    61    63  ar
    67    64    65   1
    68    65    66   1
    69    65    69   1
    70    66    67  ar
    71    66    68  ar
    72    69    70   1
    73     1    71   1
    74     1    72   1
    75     1    73   1
    76     2    74   1
    77     3    75   1
    78     4    76   1
    79     4    77   1
    80     4    78   1
    81     5    79   1
    82     5    80   1
    83     5    81   1
    84     9    82   1
    85    10    83   1
    86    10    84   1
    87    11    85   1
    88    11    86   1
    89    12    87   1
    90    12    88   1
    91    15    89   1
    92    16    90   1
    93    16    91   1
    94    19    92   1
    95    20    93   1
    96    23    94   1
    97    23    95   1
    98    24    96   1
    99    25    97   1
   100    26    98   1
   101    29    99   1
   102    29   100   1
   103    30   101   1
   104    30   102   1
   105    33   103   1
   106    33   104   1
   107    34   105   1
   108    35   106   1
   109    38   107   1
   110    38   108   1
   111    41   109   1
   112    42   110   1
   113    43   111   1
   114    44   112   1
   115    45   113   1
   116    48   114   1
   117    48   115   1
   118    50   116   1
   119    51   117   1
   120    52   118   1
   121    53   119   1
   122    55   120   1
   123    56   121   1
   124    57   122   1
   125    60   123   1
   126    60   124   1
   127    64   125   1
   128    65   126   1
   129    69   127   1
   130    69   128   1
   131    70   129   1
@<TRIPOS>SUBSTRUCTURE
     1  DVA      2

