@<TRIPOS>MOLECULE
1zea_ligand_026
   129   131
SMALL
GAST_HUCK
****
This file was generated by PARSER (from files_GN.cpp)

@<TRIPOS>ATOM
      1 N          51.8381   49.2478   78.4655 N.4         1 DVA       0.2381
      2 CA         51.8879   50.7203   78.3920 C.3         1 DVA       0.0675
      3 CB         52.8650   51.2245   77.2668 C.3         1 DVA       0.0139
      4 CG1        54.2670   50.5475   77.2693 C.3         1 DVA      -0.0553
      5 CG2        52.2290   51.0900   75.8516 C.3         1 DVA      -0.0553
      6 C          52.1974   51.2641   79.7225 C.2         1 DVA       0.2295
      7 O          53.2338   50.8485   80.2326 O.2         1 DVA      -0.3905
      8 N          51.4714   52.1706   80.4083 N.am        1 DVA      -0.2471
      9 CA         50.2226   52.7701   79.9839 C.3         1 DVA       0.1339
     10 CB         50.1503   54.0696   80.8291 C.3         1 DVA      -0.0104
     11 CG         50.8531   53.6960   82.1376 C.3         1 DVA      -0.0281
     12 CD         51.9252   52.7000   81.6710 C.3         1 DVA       0.0371
     13 C          49.0448   51.9174   80.1680 C.2         1 DVA       0.2039
     14 O          49.1613   50.7590   80.5506 O.2         1 DVA      -0.3944
     15 N          47.8397   52.4093   79.9020 N.am        1 DVA      -0.2664
     16 CA         46.5789   51.7724   80.1337 C.3         1 DVA       0.1201
     17 C          46.2117   51.6906   81.5371 C.2         1 DVA       0.2008
     18 O          46.3799   52.6833   82.2382 O.2         1 DVA      -0.3947
     19 N          45.6317   50.6005   82.0295 N.am        1 DVA      -0.2618
     20 CA         45.1879   50.4126   83.3879 C.3         1 DVA       0.1539
     21 C          43.8417   50.9511   83.5798 C.2         1 DVA       0.2062
     22 O          42.8804   50.2577   83.2644 O.2         1 DVA      -0.3943
     23 CB         45.3307   48.9063   83.7745 C.3         1 DVA       0.0843
     24 OG         44.3588   48.0585   83.1587 O.3         1 DVA      -0.3903
     25 N          43.6316   52.2159   83.9569 N.am        1 DVA      -0.2635
     26 CA         42.3496   52.8428   84.2162 C.3         1 DVA       0.1330
     27 C          42.4601   53.7288   85.3720 C.2         1 DVA       0.2041
     28 O          43.4349   54.4720   85.4304 O.2         1 DVA      -0.3944
     29 CB         41.7505   53.6623   83.0157 C.3         1 DVA       0.0045
     30 CG         41.9560   53.0719   81.5801 C.3         1 DVA       0.0412
     31 CD         42.9373   53.7779   80.7629 C.2         1 DVA       0.1737
     32 OE1        42.7794   53.8728   79.5531 O.2         1 DVA      -0.3973
     33 NE2        44.0207   54.3311   81.2688 N.am        1 DVA      -0.3009
     34 N          41.4468   53.8614   86.2275 N.am        1 DVA      -0.2625
     35 CA         41.2674   54.8313   87.2781 C.3         1 DVA       0.1369
     36 C          42.2863   54.7361   88.3265 C.2         1 DVA       0.2055
     37 O          41.9207   54.6313   89.4907 O.2         1 DVA      -0.3942
     38 CB         41.0619   56.2933   86.7547 C.3         1 DVA       0.0145
     39 CG         40.3222   57.2392   87.6253 C.2         1 DVA      -0.0027
     40 ND1        40.0246   58.4930   87.2376 N.2         1 DVA      -0.3252
     41 CD2        39.7745   57.0723   88.9005 C.2         1 DVA       0.0291
     42 CE1        39.3351   59.0817   88.2288 C.2         1 DVA       0.0907
     43 NE2        39.1883   58.2216   89.2480 N.pl3       1 DVA      -0.2752
     44 N          43.5803   54.7858   88.0201 N.am        1 DVA      -0.2620
     45 CA         44.7460   54.7075   88.8658 C.3         1 DVA       0.1390
     46 C          44.9046   55.8769   89.7291 C.2         1 DVA       0.2058
     47 O          44.0190   56.1808   90.5205 O.2         1 DVA      -0.3942
     48 CB         44.9860   53.3263   89.5605 C.3         1 DVA       0.0163
     49 CG         43.8340   52.7499   90.3051 C.ar        1 DVA      -0.0493
     50 CD1        43.0929   51.6714   89.7655 C.ar        1 DVA      -0.0685
     51 CD2        43.4374   53.2777   91.5557 C.ar        1 DVA      -0.0685
     52 CE1        41.9364   51.1973   90.4102 C.ar        1 DVA      -0.0398
     53 CE2        42.2837   52.8023   92.2042 C.ar        1 DVA      -0.0398
     54 CZ         41.5131   51.7758   91.6248 C.ar        1 DVA       0.0805
     55 OH         40.3800   51.3582   92.2486 O.3         1 DVA      -0.3376
     56 N          46.0074   56.6130   89.6399 N.am        1 DVA      -0.2620
     57 CA         46.3346   57.8143   90.3553 C.3         1 DVA       0.1423
     58 C          47.3677   57.4659   91.3244 C.2         1 DVA       0.2051
     59 O          48.5285   57.8376   91.1782 O.2         1 DVA      -0.3943
     60 CB         46.7438   58.9067   89.3189 C.3         1 DVA       0.0406
     61 CG         45.6650   59.2510   88.3733 C.2         1 DVA       0.0393
     62 OD1        44.5143   59.8141   88.8108 O.co2       1 DVA      -0.5688
     63 OD2        45.8115   59.0323   87.0447 O.co2       1 DVA      -0.5688
     64 N          47.0272   56.7055   92.3563 N.am        1 DVA      -0.2671
     65 CA         47.8965   56.1910   93.3748 C.3         1 DVA       0.1173
     66 C          47.0707   55.8303   94.5493 C.2         1 DVA       0.0623
     67 O          46.0469   54.9566   94.4397 O.co2       1 DVA      -0.5665
     68 OXT        47.2389   56.4684   95.7292 O.co2       1 DVA      -0.5665
     69 CB         48.7340   54.9847   92.8683 C.3         1 DVA       0.0789
     70 OG         47.9274   53.9625   92.2852 O.3         1 DVA      -0.3910
     71 H1         51.7092   48.8496   77.5354 H           1 DVA       0.2015
     72 H2         51.0483   48.9592   79.0455 H           1 DVA       0.2015
     73 H3         52.7108   48.8896   78.8607 H           1 DVA       0.2015
     74 H4         50.8786   51.0149   78.1048 H           1 DVA       0.1101
     75 H5         53.0270   52.2967   77.4255 H           1 DVA       0.0376
     76 H6         54.8931   50.9617   76.4754 H           1 DVA       0.0236
     77 H7         54.1780   49.4708   77.1085 H           1 DVA       0.0236
     78 H8         54.7851   50.7182   78.2127 H           1 DVA       0.0236
     79 H9         51.2879   51.6411   75.8020 H           1 DVA       0.0236
     80 H10        52.0326   50.0429   75.6100 H           1 DVA       0.0236
     81 H11        52.8962   51.5011   75.0908 H           1 DVA       0.0236
     82 H12        50.2834   53.0716   78.9324 H           1 DVA       0.0802
     83 H13        49.1337   54.4304   81.0080 H           1 DVA       0.0313
     84 H14        50.7153   54.8674   80.3338 H           1 DVA       0.0313
     85 H15        50.1465   53.2092   82.8174 H           1 DVA       0.0287
     86 H16        51.2890   54.5698   82.6314 H           1 DVA       0.0287
     87 H17        52.8786   53.2197   81.5339 H           1 DVA       0.0524
     88 H18        52.0505   51.9068   82.4138 H           1 DVA       0.0524
     89 H19        47.8083   53.3064   79.5357 H           1 DVA       0.1881
     90 H20        46.5778   50.7827   79.6676 H           1 DVA       0.0763
     91 H21        45.8197   52.3721   79.6277 H           1 DVA       0.0763
     92 H22        45.5171   49.8504   81.4209 H           1 DVA       0.1884
     93 H23        45.8638   50.9480   84.0651 H           1 DVA       0.0823
     94 H24        45.2236   48.7980   84.8549 H           1 DVA       0.0606
     95 H25        46.3237   48.5459   83.4998 H           1 DVA       0.0606
     96 H26        44.6148   47.9863   82.2161 H           1 DVA       0.2097
     97 H27        44.4170   52.7648   84.0989 H           1 DVA       0.1883
     98 H28        41.6109   52.0615   84.4513 H           1 DVA       0.0801
     99 H29        42.1144   54.7000   83.0284 H           1 DVA       0.0337
    100 H30        40.6695   53.7350   83.1903 H           1 DVA       0.0337
    101 H31        40.9878   53.0985   81.0578 H           1 DVA       0.0504
    102 H32        42.2442   52.0186   81.6421 H           1 DVA       0.0504
    103 H33        44.6418   54.7947   80.6838 H           1 DVA       0.1814
    104 H34        44.1968   54.2878   82.2246 H           1 DVA       0.1814
    105 H35        40.6784   53.2881   86.0625 H           1 DVA       0.1885
    106 H36        40.3113   54.5311   87.7172 H           1 DVA       0.0817
    107 H37        40.5116   56.2420   85.8132 H           1 DVA       0.0420
    108 H38        42.0329   56.7416   86.5309 H           1 DVA       0.0420
    109 H39        39.7941   56.2364   89.4828 H           1 DVA       0.0729
    110 H40        38.9725   60.0324   88.2188 H           1 DVA       0.1199
    111 H41        38.7215   58.4162   90.0775 H           1 DVA       0.2361
    112 H42        43.7848   54.9050   87.0814 H           1 DVA       0.1885
    113 H43        45.5624   54.7631   88.1351 H           1 DVA       0.0821
    114 H44        45.8421   53.4002   90.2374 H           1 DVA       0.0453
    115 H45        45.2920   52.6192   88.7856 H           1 DVA       0.0453
    116 H46        43.3557   51.2599   88.8672 H           1 DVA       0.0530
    117 H47        43.9617   54.0433   91.9858 H           1 DVA       0.0530
    118 H48        41.3967   50.4391   89.9865 H           1 DVA       0.0525
    119 H49        41.9844   53.2220   93.0892 H           1 DVA       0.0525
    120 H50        39.9743   50.6795   91.6656 H           1 DVA       0.2458
    121 H51        46.6837   56.3008   89.0159 H           1 DVA       0.1884
    122 H52        45.4789   58.2044   90.9209 H           1 DVA       0.0819
    123 H53        47.6123   58.5569   88.7525 H           1 DVA       0.0478
    124 H54        47.0330   59.8198   89.8437 H           1 DVA       0.0478
    125 H55        46.0894   56.4621   92.4229 H           1 DVA       0.1876
    126 H56        48.5876   56.9817   93.6821 H           1 DVA       0.0749
    127 H57        49.3129   54.5550   93.6887 H           1 DVA       0.0599
    128 H58        49.4402   55.3228   92.1070 H           1 DVA       0.0599
    129 H59        47.3973   53.5959   93.0246 H           1 DVA       0.2096
@<TRIPOS>BOND
     1     1     2   1
     2     2     3   1
     3     2     6   1
     4     3     4   1
     5     3     5   1
     6     6     7   2
     7     6     8  am
     8     8     9   1
     9     8    12   1
    10     9    10   1
    11     9    13   1
    12    10    11   1
    13    11    12   1
    14    13    14   2
    15    13    15  am
    16    15    16   1
    17    16    17   1
    18    17    18   2
    19    17    19  am
    20    19    20   1
    21    20    21   1
    22    20    23   1
    23    21    22   2
    24    21    25  am
    25    23    24   1
    26    25    26   1
    27    26    27   1
    28    26    29   1
    29    27    28   2
    30    27    34  am
    31    29    30   1
    32    30    31   1
    33    31    32   2
    34    31    33  am
    35    34    35   1
    36    35    36   1
    37    35    38   1
    38    36    37   2
    39    36    44  am
    40    38    39   1
    41    39    40   1
    42    39    41   2
    43    40    42   2
    44    41    43   1
    45    42    43   1
    46    44    45   1
    47    45    46   1
    48    45    48   1
    49    46    47   2
    50    46    56  am
    51    48    49   1
    52    49    50  ar
    53    49    51  ar
    54    50    52  ar
    55    51    53  ar
    56    52    54  ar
    57    53    54  ar
    58    54    55   1
    59    56    57   1
    60    57    58   1
    61    57    60   1
    62    58    59   2
    63    58    64  am
    64    60    61   1
    65    61    62  ar
    66    61    63  ar
    67    64    65   1
    68    65    66   1
    69    65    69   1
    70    66    67  ar
    71    66    68  ar
    72    69    70   1
    73     1    71   1
    74     1    72   1
    75     1    73   1
    76     2    74   1
    77     3    75   1
    78     4    76   1
    79     4    77   1
    80     4    78   1
    81     5    79   1
    82     5    80   1
    83     5    81   1
    84     9    82   1
    85    10    83   1
    86    10    84   1
    87    11    85   1
    88    11    86   1
    89    12    87   1
    90    12    88   1
    91    15    89   1
    92    16    90   1
    93    16    91   1
    94    19    92   1
    95    20    93   1
    96    23    94   1
    97    23    95   1
    98    24    96   1
    99    25    97   1
   100    26    98   1
   101    29    99   1
   102    29   100   1
   103    30   101   1
   104    30   102   1
   105    33   103   1
   106    33   104   1
   107    34   105   1
   108    35   106   1
   109    38   107   1
   110    38   108   1
   111    41   109   1
   112    42   110   1
   113    43   111   1
   114    44   112   1
   115    45   113   1
   116    48   114   1
   117    48   115   1
   118    50   116   1
   119    51   117   1
   120    52   118   1
   121    53   119   1
   122    55   120   1
   123    56   121   1
   124    57   122   1
   125    60   123   1
   126    60   124   1
   127    64   125   1
   128    65   126   1
   129    69   127   1
   130    69   128   1
   131    70   129   1
@<TRIPOS>SUBSTRUCTURE
     1  DVA      2

