@<TRIPOS>MOLECULE
1zea_ligand_042
   129   131
SMALL
GAST_HUCK
****
This file was generated by PARSER (from files_GN.cpp)

@<TRIPOS>ATOM
      1 N          42.6555   52.9126   93.0008 N.4         1 DVA       0.2381
      2 CA         41.6311   52.7189   94.0465 C.3         1 DVA       0.0675
      3 CB         42.0067   51.5051   94.9698 C.3         1 DVA       0.0139
      4 CG1        42.7556   51.9692   96.2552 C.3         1 DVA      -0.0553
      5 CG2        40.7847   50.6258   95.3820 C.3         1 DVA      -0.0553
      6 C          40.3207   52.6028   93.3956 C.2         1 DVA       0.2295
      7 O          40.2719   51.7891   92.4734 O.2         1 DVA      -0.3905
      8 N          39.1812   53.2076   93.7838 N.am        1 DVA      -0.2471
      9 CA         39.0523   54.1425   94.8780 C.3         1 DVA       0.1339
     10 CB         37.5301   54.2052   95.1794 C.3         1 DVA      -0.0104
     11 CG         36.8580   53.7741   93.8695 C.3         1 DVA      -0.0281
     12 CD         37.9128   52.8921   93.1820 C.3         1 DVA       0.0371
     13 C          39.6176   55.4599   94.5880 C.2         1 DVA       0.2039
     14 O          40.4312   55.9256   95.3802 O.2         1 DVA      -0.3944
     15 N          39.2387   56.1447   93.5185 N.am        1 DVA      -0.2664
     16 CA         39.6587   57.4585   93.1370 C.3         1 DVA       0.1201
     17 C          40.1877   57.4445   91.7967 C.2         1 DVA       0.2008
     18 O          41.0779   56.6261   91.5598 O.2         1 DVA      -0.3947
     19 N          39.7535   58.3145   90.8807 N.am        1 DVA      -0.2618
     20 CA         40.1681   58.5535   89.5243 C.3         1 DVA       0.1539
     21 C          41.3545   57.8201   89.0984 C.2         1 DVA       0.2062
     22 O          41.2273   56.7286   88.5235 O.2         1 DVA      -0.3943
     23 CB         38.9650   58.3114   88.5685 C.3         1 DVA       0.0843
     24 OG         39.2070   58.7351   87.2253 O.3         1 DVA      -0.3903
     25 N          42.5650   58.2595   89.4223 N.am        1 DVA      -0.2635
     26 CA         43.7796   57.4934   89.3519 C.3         1 DVA       0.1330
     27 C          43.8604   56.7943   88.0713 C.2         1 DVA       0.2041
     28 O          44.1934   57.4214   87.0699 O.2         1 DVA      -0.3944
     29 CB         45.0096   58.4077   89.6553 C.3         1 DVA       0.0045
     30 CG         46.3884   57.6822   89.6713 C.3         1 DVA       0.0412
     31 CD         46.5046   56.6731   90.7007 C.2         1 DVA       0.1737
     32 OE1        46.5210   55.4840   90.4093 O.2         1 DVA      -0.3973
     33 NE2        46.6181   57.0006   91.9743 N.am        1 DVA      -0.3009
     34 N          43.3674   55.5703   87.9932 N.am        1 DVA      -0.2625
     35 CA         43.0586   54.8359   86.7902 C.3         1 DVA       0.1369
     36 C          44.2259   54.4144   86.0097 C.2         1 DVA       0.2055
     37 O          45.3453   54.8131   86.2983 O.2         1 DVA      -0.3942
     38 CB         42.0292   53.7014   87.0875 C.3         1 DVA       0.0145
     39 CG         42.3747   52.7816   88.1917 C.2         1 DVA      -0.0027
     40 ND1        43.5944   52.3115   88.4905 N.2         1 DVA      -0.3252
     41 CD2        41.4707   52.2277   89.0938 C.2         1 DVA       0.0291
     42 CE1        43.4510   51.5023   89.5597 C.2         1 DVA       0.0907
     43 NE2        42.1566   51.4366   89.9159 N.pl3       1 DVA      -0.2752
     44 N          43.9971   53.6987   84.9207 N.am        1 DVA      -0.2620
     45 CA         44.8611   53.4585   83.8082 C.3         1 DVA       0.1390
     46 C          45.1041   52.0280   83.6861 C.2         1 DVA       0.2058
     47 O          44.9352   51.4391   82.6225 O.2         1 DVA      -0.3942
     48 CB         44.2740   54.1850   82.5522 C.3         1 DVA       0.0163
     49 CG         42.7914   54.1082   82.3937 C.ar        1 DVA      -0.0493
     50 CD1        42.1777   53.4567   81.2953 C.ar        1 DVA      -0.0685
     51 CD2        41.9461   54.6776   83.3753 C.ar        1 DVA      -0.0685
     52 CE1        40.7778   53.3603   81.1901 C.ar        1 DVA      -0.0398
     53 CE2        40.5452   54.5776   83.2803 C.ar        1 DVA      -0.0398
     54 CZ         39.9561   53.9176   82.1904 C.ar        1 DVA       0.0805
     55 OH         38.6063   53.8300   82.0720 O.3         1 DVA      -0.3376
     56 N          45.5865   51.3805   84.7416 N.am        1 DVA      -0.2620
     57 CA         46.0720   50.0323   84.8227 C.3         1 DVA       0.1423
     58 C          47.2410   50.0710   85.6975 C.2         1 DVA       0.2051
     59 O          48.3504   49.8696   85.2177 O.2         1 DVA      -0.3943
     60 CB         44.9765   49.0557   85.3506 C.3         1 DVA       0.0406
     61 CG         44.0036   48.6861   84.3078 C.2         1 DVA       0.0393
     62 OD1        43.7969   47.3874   83.9955 O.co2       1 DVA      -0.5688
     63 OD2        43.3102   49.6371   83.6481 O.co2       1 DVA      -0.5688
     64 N          47.1038   50.4189   86.9760 N.am        1 DVA      -0.2671
     65 CA         48.1438   50.6444   87.9374 C.3         1 DVA       0.1173
     66 C          47.4952   51.1333   89.1829 C.2         1 DVA       0.0623
     67 O          47.7808   52.3523   89.6841 O.co2       1 DVA      -0.5665
     68 OXT        46.6176   50.3383   89.8415 O.co2       1 DVA      -0.5665
     69 CB         48.9995   49.3886   88.2553 C.3         1 DVA       0.0789
     70 OG         50.0313   49.2132   87.2879 O.3         1 DVA      -0.3910
     71 H1         43.5684   53.0735   93.4309 H           1 DVA       0.2015
     72 H2         42.4145   53.7202   92.4236 H           1 DVA       0.2015
     73 H3         42.7083   52.0779   92.4103 H           1 DVA       0.2015
     74 H4         41.6705   53.6245   94.6525 H           1 DVA       0.1101
     75 H5         42.6930   50.8528   94.4185 H           1 DVA       0.0376
     76 H6         43.0931   51.1090   96.8356 H           1 DVA       0.0236
     77 H7         42.0998   52.5763   96.8859 H           1 DVA       0.0236
     78 H8         43.6364   52.5624   96.0007 H           1 DVA       0.0236
     79 H9         40.3671   50.1201   94.5081 H           1 DVA       0.0236
     80 H10        40.0027   51.2397   95.8341 H           1 DVA       0.0236
     81 H11        41.0770   49.8575   96.0970 H           1 DVA       0.0236
     82 H12        39.5214   53.7199   95.7764 H           1 DVA       0.0802
     83 H13        37.1847   55.1933   95.4960 H           1 DVA       0.0313
     84 H14        37.2729   53.4841   95.9636 H           1 DVA       0.0313
     85 H15        36.6383   54.6443   93.2484 H           1 DVA       0.0287
     86 H16        35.9306   53.2271   94.0600 H           1 DVA       0.0287
     87 H17        37.6752   51.8360   93.3448 H           1 DVA       0.0524
     88 H18        37.9246   53.0930   92.1051 H           1 DVA       0.0524
     89 H19        38.6048   55.7128   92.9251 H           1 DVA       0.1881
     90 H20        40.4227   57.8655   93.8029 H           1 DVA       0.0763
     91 H21        38.7912   58.1193   93.2107 H           1 DVA       0.0763
     92 H22        39.0782   58.9284   91.1922 H           1 DVA       0.1884
     93 H23        40.3768   59.6284   89.4711 H           1 DVA       0.0823
     94 H24        38.0949   58.8576   88.9303 H           1 DVA       0.0606
     95 H25        38.7079   57.2517   88.5559 H           1 DVA       0.0606
     96 H26        39.7403   58.0195   86.8211 H           1 DVA       0.2097
     97 H27        42.6176   59.1164   89.8832 H           1 DVA       0.1883
     98 H28        43.7249   56.7657   90.1711 H           1 DVA       0.0801
     99 H29        44.8581   58.8927   90.6266 H           1 DVA       0.0337
    100 H30        45.0544   59.2064   88.9061 H           1 DVA       0.0337
    101 H31        47.1781   58.4281   89.8213 H           1 DVA       0.0504
    102 H32        46.5510   57.2419   88.6814 H           1 DVA       0.0504
    103 H33        46.7058   56.3022   92.6392 H           1 DVA       0.1814
    104 H34        46.6273   57.9356   92.2371 H           1 DVA       0.1814
    105 H35        43.0764   55.1690   88.8262 H           1 DVA       0.1885
    106 H36        42.5274   55.5338   86.1319 H           1 DVA       0.0817
    107 H37        41.8622   53.0928   86.1976 H           1 DVA       0.0420
    108 H38        41.0724   54.1772   87.3208 H           1 DVA       0.0420
    109 H39        40.4582   52.3701   89.1211 H           1 DVA       0.0729
    110 H40        44.2075   51.0093   90.0318 H           1 DVA       0.1199
    111 H41        41.7954   50.9086   90.6439 H           1 DVA       0.2361
    112 H42        43.0969   53.3624   84.8295 H           1 DVA       0.1885
    113 H43        45.8446   53.9108   83.9872 H           1 DVA       0.0821
    114 H44        44.7694   53.8138   81.6492 H           1 DVA       0.0453
    115 H45        44.5293   55.2450   82.6149 H           1 DVA       0.0453
    116 H46        42.7569   53.0446   80.5656 H           1 DVA       0.0530
    117 H47        42.3460   55.1450   84.1889 H           1 DVA       0.0530
    118 H48        40.3502   52.8748   80.3927 H           1 DVA       0.0525
    119 H49        39.9561   54.9847   84.0141 H           1 DVA       0.0525
    120 H50        38.2370   53.8506   82.9838 H           1 DVA       0.2458
    121 H51        45.6360   51.8947   85.5637 H           1 DVA       0.1884
    122 H52        46.3911   49.6815   83.8322 H           1 DVA       0.0819
    123 H53        44.4355   49.5046   86.1850 H           1 DVA       0.0478
    124 H54        45.4490   48.1424   85.7177 H           1 DVA       0.0478
    125 H55        46.1995   50.5960   87.2759 H           1 DVA       0.1876
    126 H56        48.8051   51.4405   87.5744 H           1 DVA       0.0749
    127 H57        48.3726   48.4933   88.2665 H           1 DVA       0.0599
    128 H58        49.4831   49.4887   89.2337 H           1 DVA       0.0599
    129 H59        50.7677   48.7868   87.7749 H           1 DVA       0.2096
@<TRIPOS>BOND
     1     1     2   1
     2     2     3   1
     3     2     6   1
     4     3     4   1
     5     3     5   1
     6     6     7   2
     7     6     8  am
     8     8     9   1
     9     8    12   1
    10     9    10   1
    11     9    13   1
    12    10    11   1
    13    11    12   1
    14    13    14   2
    15    13    15  am
    16    15    16   1
    17    16    17   1
    18    17    18   2
    19    17    19  am
    20    19    20   1
    21    20    21   1
    22    20    23   1
    23    21    22   2
    24    21    25  am
    25    23    24   1
    26    25    26   1
    27    26    27   1
    28    26    29   1
    29    27    28   2
    30    27    34  am
    31    29    30   1
    32    30    31   1
    33    31    32   2
    34    31    33  am
    35    34    35   1
    36    35    36   1
    37    35    38   1
    38    36    37   2
    39    36    44  am
    40    38    39   1
    41    39    40   1
    42    39    41   2
    43    40    42   2
    44    41    43   1
    45    42    43   1
    46    44    45   1
    47    45    46   1
    48    45    48   1
    49    46    47   2
    50    46    56  am
    51    48    49   1
    52    49    50  ar
    53    49    51  ar
    54    50    52  ar
    55    51    53  ar
    56    52    54  ar
    57    53    54  ar
    58    54    55   1
    59    56    57   1
    60    57    58   1
    61    57    60   1
    62    58    59   2
    63    58    64  am
    64    60    61   1
    65    61    62  ar
    66    61    63  ar
    67    64    65   1
    68    65    66   1
    69    65    69   1
    70    66    67  ar
    71    66    68  ar
    72    69    70   1
    73     1    71   1
    74     1    72   1
    75     1    73   1
    76     2    74   1
    77     3    75   1
    78     4    76   1
    79     4    77   1
    80     4    78   1
    81     5    79   1
    82     5    80   1
    83     5    81   1
    84     9    82   1
    85    10    83   1
    86    10    84   1
    87    11    85   1
    88    11    86   1
    89    12    87   1
    90    12    88   1
    91    15    89   1
    92    16    90   1
    93    16    91   1
    94    19    92   1
    95    20    93   1
    96    23    94   1
    97    23    95   1
    98    24    96   1
    99    25    97   1
   100    26    98   1
   101    29    99   1
   102    29   100   1
   103    30   101   1
   104    30   102   1
   105    33   103   1
   106    33   104   1
   107    34   105   1
   108    35   106   1
   109    38   107   1
   110    38   108   1
   111    41   109   1
   112    42   110   1
   113    43   111   1
   114    44   112   1
   115    45   113   1
   116    48   114   1
   117    48   115   1
   118    50   116   1
   119    51   117   1
   120    52   118   1
   121    53   119   1
   122    55   120   1
   123    56   121   1
   124    57   122   1
   125    60   123   1
   126    60   124   1
   127    64   125   1
   128    65   126   1
   129    69   127   1
   130    69   128   1
   131    70   129   1
@<TRIPOS>SUBSTRUCTURE
     1  DVA      2

