@<TRIPOS>MOLECULE
1zea_ligand_097
   129   131
SMALL
GAST_HUCK
****
This file was generated by PARSER (from files_GN.cpp)

@<TRIPOS>ATOM
      1 N          51.0409   49.8411   77.0915 N.4         1 DVA       0.2381
      2 CA         51.1182   51.2207   77.6046 C.3         1 DVA       0.0675
      3 CB         51.7579   52.2128   76.5688 C.3         1 DVA       0.0139
      4 CG1        53.1738   51.7956   76.0735 C.3         1 DVA      -0.0553
      5 CG2        50.8205   52.4603   75.3494 C.3         1 DVA      -0.0553
      6 C          51.7867   51.2433   78.9123 C.2         1 DVA       0.2295
      7 O          52.8451   50.6241   78.9818 O.2         1 DVA      -0.3905
      8 N          51.3600   51.9047   80.0040 N.am        1 DVA      -0.2471
      9 CA         50.1537   52.6954   80.0952 C.3         1 DVA       0.1339
     10 CB         50.3719   53.5806   81.3471 C.3         1 DVA      -0.0104
     11 CG         51.2801   52.7304   82.2412 C.3         1 DVA      -0.0281
     12 CD         52.1124   51.9208   81.2319 C.3         1 DVA       0.0371
     13 C          48.9344   51.8925   80.2140 C.2         1 DVA       0.2039
     14 O          48.9902   50.7469   80.6403 O.2         1 DVA      -0.3944
     15 N          47.7666   52.4446   79.9087 N.am        1 DVA      -0.2664
     16 CA         46.4827   51.8204   80.0373 C.3         1 DVA       0.1201
     17 C          46.0493   51.7102   81.4188 C.2         1 DVA       0.2008
     18 O          45.9211   52.7438   82.0652 O.2         1 DVA      -0.3947
     19 N          45.8063   50.5209   81.9649 N.am        1 DVA      -0.2618
     20 CA         45.4097   50.2883   83.3278 C.3         1 DVA       0.1539
     21 C          44.0426   50.7294   83.5716 C.2         1 DVA       0.2062
     22 O          43.1524   50.2794   82.8631 O.2         1 DVA      -0.3943
     23 CB         45.5924   48.7878   83.7021 C.3         1 DVA       0.0843
     24 OG         44.6342   47.9244   83.0816 O.3         1 DVA      -0.3903
     25 N          43.7652   51.5564   84.5722 N.am        1 DVA      -0.2635
     26 CA         42.4566   51.9935   84.9980 C.3         1 DVA       0.1330
     27 C          42.4831   52.5875   86.3403 C.2         1 DVA       0.2041
     28 O          43.5463   52.7279   86.9381 O.2         1 DVA      -0.3944
     29 CB         41.7823   52.9180   83.9295 C.3         1 DVA       0.0045
     30 CG         42.5122   54.2599   83.6250 C.3         1 DVA       0.0412
     31 CD         42.4002   55.2227   84.6949 C.2         1 DVA       0.1737
     32 OE1        43.3901   55.6484   85.2776 O.2         1 DVA      -0.3973
     33 NE2        41.2193   55.6785   85.0592 N.am        1 DVA      -0.3009
     34 N          41.3434   52.9422   86.9330 N.am        1 DVA      -0.2625
     35 CA         41.1144   53.4929   88.2493 C.3         1 DVA       0.1369
     36 C          41.1982   52.4966   89.3015 C.2         1 DVA       0.2055
     37 O          41.9112   51.5078   89.1598 O.2         1 DVA      -0.3942
     38 CB         41.9846   54.7563   88.5572 C.3         1 DVA       0.0145
     39 CG         41.5239   55.5458   89.7195 C.2         1 DVA      -0.0027
     40 ND1        42.2034   55.6999   90.8714 N.2         1 DVA      -0.3252
     41 CD2        40.3270   56.2417   89.8396 C.2         1 DVA       0.0291
     42 CE1        41.4482   56.4598   91.6814 C.2         1 DVA       0.0907
     43 NE2        40.3074   56.7899   91.0594 N.pl3       1 DVA      -0.2752
     44 N          40.5303   52.6891   90.4334 N.am        1 DVA      -0.2620
     45 CA         40.5492   51.8683   91.6111 C.3         1 DVA       0.1390
     46 C          41.4924   52.5109   92.5181 C.2         1 DVA       0.2058
     47 O          41.1390   53.4725   93.2071 O.2         1 DVA      -0.3942
     48 CB         39.0923   51.6767   92.1569 C.3         1 DVA       0.0163
     49 CG         38.8690   50.4350   92.9567 C.ar        1 DVA      -0.0493
     50 CD1        39.5674   50.2061   94.1663 C.ar        1 DVA      -0.0685
     51 CD2        37.9407   49.4537   92.5295 C.ar        1 DVA      -0.0685
     52 CE1        39.3641   49.0244   94.9084 C.ar        1 DVA      -0.0398
     53 CE2        37.7330   48.2766   93.2709 C.ar        1 DVA      -0.0398
     54 CZ         38.4485   48.0537   94.4608 C.ar        1 DVA       0.0805
     55 OH         38.2331   46.9089   95.1591 O.3         1 DVA      -0.3376
     56 N          42.7675   52.1405   92.5133 N.am        1 DVA      -0.2620
     57 CA         43.8677   52.8150   93.1506 C.3         1 DVA       0.1423
     58 C          43.6491   52.9672   94.5900 C.2         1 DVA       0.2051
     59 O          43.5330   51.9627   95.2780 O.2         1 DVA      -0.3943
     60 CB         45.1989   52.0544   92.8579 C.3         1 DVA       0.0406
     61 CG         45.5318   51.9751   91.4254 C.2         1 DVA       0.0393
     62 OD1        45.8106   53.0966   90.7188 O.co2       1 DVA      -0.5688
     63 OD2        45.6057   50.7821   90.7925 O.co2       1 DVA      -0.5688
     64 N          43.5884   54.1831   95.1202 N.am        1 DVA      -0.2671
     65 CA         43.3406   54.5268   96.4960 C.3         1 DVA       0.1173
     66 C          44.4691   55.3048   97.0704 C.2         1 DVA       0.0623
     67 O          44.4362   55.6822   98.3737 O.co2       1 DVA      -0.5665
     68 OXT        45.5725   55.6212   96.3482 O.co2       1 DVA      -0.5665
     69 CB         42.0111   55.3207   96.5918 C.3         1 DVA       0.0789
     70 OG         42.0121   56.4961   95.7849 O.3         1 DVA      -0.3910
     71 H1         50.5989   49.8360   76.1710 H           1 DVA       0.2015
     72 H2         50.4870   49.2704   77.7334 H           1 DVA       0.2015
     73 H3         51.9783   49.4426   77.0118 H           1 DVA       0.2015
     74 H4         50.0762   51.5145   77.7309 H           1 DVA       0.1101
     75 H5         51.8694   53.1846   77.0645 H           1 DVA       0.0376
     76 H6         53.5622   52.5316   75.3664 H           1 DVA       0.0236
     77 H7         53.1422   50.8241   75.5779 H           1 DVA       0.0236
     78 H8         53.8757   51.7419   76.9065 H           1 DVA       0.0236
     79 H9         49.8541   52.8428   75.6843 H           1 DVA       0.0236
     80 H10        50.6566   51.5386   74.7884 H           1 DVA       0.0236
     81 H11        51.2558   53.2018   74.6759 H           1 DVA       0.0236
     82 H12        50.0768   53.3606   79.2253 H           1 DVA       0.0802
     83 H13        49.4442   53.8595   81.8587 H           1 DVA       0.0313
     84 H14        50.8974   54.5001   81.0642 H           1 DVA       0.0313
     85 H15        50.6730   52.0595   82.8553 H           1 DVA       0.0287
     86 H16        51.9047   53.3472   82.8905 H           1 DVA       0.0287
     87 H17        53.0809   52.4033   81.0722 H           1 DVA       0.0524
     88 H18        52.2723   50.9085   81.6090 H           1 DVA       0.0524
     89 H19        47.7786   53.3424   79.5438 H           1 DVA       0.1881
     90 H20        46.5103   50.8422   79.5452 H           1 DVA       0.0763
     91 H21        45.7584   52.4359   79.5012 H           1 DVA       0.0763
     92 H22        45.9354   49.7397   81.4000 H           1 DVA       0.1884
     93 H23        46.1063   50.8392   83.9699 H           1 DVA       0.0823
     94 H24        45.5014   48.6657   84.7837 H           1 DVA       0.0606
     95 H25        46.5944   48.4556   83.4136 H           1 DVA       0.0606
     96 H26        44.7797   48.0339   82.1204 H           1 DVA       0.2097
     97 H27        44.5209   51.8520   85.1010 H           1 DVA       0.1883
     98 H28        41.8285   51.1048   85.0859 H           1 DVA       0.0801
     99 H29        40.7493   53.1238   84.2243 H           1 DVA       0.0337
    100 H30        41.7074   52.3648   82.9873 H           1 DVA       0.0337
    101 H31        42.0743   54.7010   82.7261 H           1 DVA       0.0504
    102 H32        43.5604   54.0488   83.3965 H           1 DVA       0.0504
    103 H33        41.1396   56.3309   85.7732 H           1 DVA       0.1814
    104 H34        40.4212   55.3690   84.6004 H           1 DVA       0.1814
    105 H35        40.5358   52.7789   86.4170 H           1 DVA       0.1885
    106 H36        40.0714   53.8216   88.2011 H           1 DVA       0.0817
    107 H37        41.9876   55.4243   87.6889 H           1 DVA       0.0420
    108 H38        43.0201   54.4526   88.7379 H           1 DVA       0.0420
    109 H39        39.5930   56.3281   89.1336 H           1 DVA       0.0729
    110 H40        41.7076   56.7480   92.6259 H           1 DVA       0.1199
    111 H41        39.5981   57.3418   91.4268 H           1 DVA       0.2361
    112 H42        40.0107   53.5107   90.4945 H           1 DVA       0.1885
    113 H43        40.9228   50.8734   91.3579 H           1 DVA       0.0821
    114 H44        38.4128   51.6738   91.2981 H           1 DVA       0.0453
    115 H45        38.7965   52.5378   92.7622 H           1 DVA       0.0453
    116 H46        40.2323   50.8991   94.5164 H           1 DVA       0.0530
    117 H47        37.4019   49.5933   91.6701 H           1 DVA       0.0530
    118 H48        39.8893   48.8752   95.7745 H           1 DVA       0.0525
    119 H49        37.0657   47.5731   92.9368 H           1 DVA       0.0525
    120 H50        39.0433   46.7584   95.6922 H           1 DVA       0.2458
    121 H51        42.9974   51.4080   91.9112 H           1 DVA       0.1884
    122 H52        43.9470   53.7985   92.6811 H           1 DVA       0.0819
    123 H53        45.1351   51.0388   93.2662 H           1 DVA       0.0478
    124 H54        46.0246   52.5622   93.3643 H           1 DVA       0.0478
    125 H55        43.6981   54.9339   94.5158 H           1 DVA       0.1876
    126 H56        43.2347   53.6329   97.1195 H           1 DVA       0.0749
    127 H57        41.8084   55.6089   97.6274 H           1 DVA       0.0599
    128 H58        41.1881   54.6878   96.2612 H           1 DVA       0.0599
    129 H59        42.7264   57.0621   96.1446 H           1 DVA       0.2096
@<TRIPOS>BOND
     1     1     2   1
     2     2     3   1
     3     2     6   1
     4     3     4   1
     5     3     5   1
     6     6     7   2
     7     6     8  am
     8     8     9   1
     9     8    12   1
    10     9    10   1
    11     9    13   1
    12    10    11   1
    13    11    12   1
    14    13    14   2
    15    13    15  am
    16    15    16   1
    17    16    17   1
    18    17    18   2
    19    17    19  am
    20    19    20   1
    21    20    21   1
    22    20    23   1
    23    21    22   2
    24    21    25  am
    25    23    24   1
    26    25    26   1
    27    26    27   1
    28    26    29   1
    29    27    28   2
    30    27    34  am
    31    29    30   1
    32    30    31   1
    33    31    32   2
    34    31    33  am
    35    34    35   1
    36    35    36   1
    37    35    38   1
    38    36    37   2
    39    36    44  am
    40    38    39   1
    41    39    40   1
    42    39    41   2
    43    40    42   2
    44    41    43   1
    45    42    43   1
    46    44    45   1
    47    45    46   1
    48    45    48   1
    49    46    47   2
    50    46    56  am
    51    48    49   1
    52    49    50  ar
    53    49    51  ar
    54    50    52  ar
    55    51    53  ar
    56    52    54  ar
    57    53    54  ar
    58    54    55   1
    59    56    57   1
    60    57    58   1
    61    57    60   1
    62    58    59   2
    63    58    64  am
    64    60    61   1
    65    61    62  ar
    66    61    63  ar
    67    64    65   1
    68    65    66   1
    69    65    69   1
    70    66    67  ar
    71    66    68  ar
    72    69    70   1
    73     1    71   1
    74     1    72   1
    75     1    73   1
    76     2    74   1
    77     3    75   1
    78     4    76   1
    79     4    77   1
    80     4    78   1
    81     5    79   1
    82     5    80   1
    83     5    81   1
    84     9    82   1
    85    10    83   1
    86    10    84   1
    87    11    85   1
    88    11    86   1
    89    12    87   1
    90    12    88   1
    91    15    89   1
    92    16    90   1
    93    16    91   1
    94    19    92   1
    95    20    93   1
    96    23    94   1
    97    23    95   1
    98    24    96   1
    99    25    97   1
   100    26    98   1
   101    29    99   1
   102    29   100   1
   103    30   101   1
   104    30   102   1
   105    33   103   1
   106    33   104   1
   107    34   105   1
   108    35   106   1
   109    38   107   1
   110    38   108   1
   111    41   109   1
   112    42   110   1
   113    43   111   1
   114    44   112   1
   115    45   113   1
   116    48   114   1
   117    48   115   1
   118    50   116   1
   119    51   117   1
   120    52   118   1
   121    53   119   1
   122    55   120   1
   123    56   121   1
   124    57   122   1
   125    60   123   1
   126    60   124   1
   127    64   125   1
   128    65   126   1
   129    69   127   1
   130    69   128   1
   131    70   129   1
@<TRIPOS>SUBSTRUCTURE
     1  DVA      2

