@<TRIPOS>MOLECULE
1zea_ligand_082
   129   131
SMALL
GAST_HUCK
****
This file was generated by PARSER (from files_GN.cpp)

@<TRIPOS>ATOM
      1 N          36.0751   49.0383   95.6351 N.4         1 DVA       0.2381
      2 CA         35.5365   50.1542   96.4393 C.3         1 DVA       0.0675
      3 CB         35.2755   49.7282   97.9323 C.3         1 DVA       0.0139
      4 CG1        34.4677   48.4041   98.1132 C.3         1 DVA      -0.0553
      5 CG2        36.6038   49.6292   98.7410 C.3         1 DVA      -0.0553
      6 C          34.3679   50.7278   95.7568 C.2         1 DVA       0.2295
      7 O          33.4314   49.9545   95.5945 O.2         1 DVA      -0.3905
      8 N          34.2489   51.9871   95.2864 N.am        1 DVA      -0.2471
      9 CA         35.2839   53.0036   95.2299 C.3         1 DVA       0.1339
     10 CB         34.5603   54.2754   94.7086 C.3         1 DVA      -0.0104
     11 CG         33.0821   54.0271   94.9980 C.3         1 DVA      -0.0281
     12 CD         32.9737   52.5030   94.8628 C.3         1 DVA       0.0371
     13 C          36.4749   52.7180   94.4177 C.2         1 DVA       0.2039
     14 O          36.6463   51.5945   93.9544 O.2         1 DVA      -0.3944
     15 N          37.3629   53.6845   94.1959 N.am        1 DVA      -0.2664
     16 CA         38.6388   53.5800   93.5442 C.3         1 DVA       0.1201
     17 C          38.6672   53.1682   92.1503 C.2         1 DVA       0.2008
     18 O          37.6798   52.6532   91.6350 O.2         1 DVA      -0.3947
     19 N          39.7991   53.3219   91.4740 N.am        1 DVA      -0.2618
     20 CA         40.1202   52.8111   90.1683 C.3         1 DVA       0.1539
     21 C          40.3663   53.9125   89.2442 C.2         1 DVA       0.2062
     22 O          39.4573   54.2342   88.4869 O.2         1 DVA      -0.3943
     23 CB         41.3070   51.8163   90.2985 C.3         1 DVA       0.0843
     24 OG         41.8831   51.5053   89.0353 O.3         1 DVA      -0.3903
     25 N          41.5488   54.5320   89.1798 N.am        1 DVA      -0.2635
     26 CA         41.9199   55.6313   88.3201 C.3         1 DVA       0.1330
     27 C          41.8268   55.2497   86.9105 C.2         1 DVA       0.2041
     28 O          40.7634   55.4308   86.3186 O.2         1 DVA      -0.3944
     29 CB         41.1449   56.9247   88.7360 C.3         1 DVA       0.0045
     30 CG         41.3643   58.1820   87.8288 C.3         1 DVA       0.0412
     31 CD         40.1143   58.8143   87.4478 C.2         1 DVA       0.1737
     32 OE1        39.6581   58.6666   86.3229 O.2         1 DVA      -0.3973
     33 NE2        39.3834   59.4566   88.3329 N.am        1 DVA      -0.3009
     34 N          42.8563   54.6950   86.2769 N.am        1 DVA      -0.2625
     35 CA         42.8394   54.2721   84.8931 C.3         1 DVA       0.1369
     36 C          44.1867   53.8786   84.4695 C.2         1 DVA       0.2055
     37 O          44.3973   52.7856   83.9430 O.2         1 DVA      -0.3942
     38 CB         41.6950   53.2081   84.6547 C.3         1 DVA       0.0145
     39 CG         40.7597   53.6229   83.5913 C.2         1 DVA      -0.0027
     40 ND1        41.0510   53.6592   82.2790 N.2         1 DVA      -0.3252
     41 CD2        39.4622   54.0981   83.7575 C.2         1 DVA       0.0291
     42 CE1        39.9628   54.1347   81.6501 C.2         1 DVA       0.0907
     43 NE2        38.9983   54.4067   82.5451 N.pl3       1 DVA      -0.2752
     44 N          45.1738   54.7664   84.5539 N.am        1 DVA      -0.2620
     45 CA         46.4901   54.6843   83.9667 C.3         1 DVA       0.1390
     46 C          47.0374   56.0366   84.0054 C.2         1 DVA       0.2058
     47 O          47.6324   56.4132   85.0176 O.2         1 DVA      -0.3942
     48 CB         47.4389   53.6344   84.6470 C.3         1 DVA       0.0163
     49 CG         47.3549   52.2473   84.0967 C.ar        1 DVA      -0.0493
     50 CD1        47.6561   52.0031   82.7384 C.ar        1 DVA      -0.0685
     51 CD2        47.0341   51.1423   84.9239 C.ar        1 DVA      -0.0685
     52 CE1        47.6016   50.6984   82.2050 C.ar        1 DVA      -0.0398
     53 CE2        46.9873   49.8379   84.3979 C.ar        1 DVA      -0.0398
     54 CZ         47.2663   49.6145   83.0356 C.ar        1 DVA       0.0805
     55 OH         47.2419   48.3501   82.5440 O.3         1 DVA      -0.3376
     56 N          46.8673   56.8517   82.9718 N.am        1 DVA      -0.2620
     57 CA         47.3436   58.1974   82.8188 C.3         1 DVA       0.1423
     58 C          48.2908   58.2208   81.7097 C.2         1 DVA       0.2051
     59 O          49.4356   58.6148   81.9138 O.2         1 DVA      -0.3943
     60 CB         46.1590   59.1803   82.5662 C.3         1 DVA       0.0406
     61 CG         45.2453   59.4065   83.7056 C.2         1 DVA       0.0393
     62 OD1        45.4574   58.8958   84.9388 O.co2       1 DVA      -0.5688
     63 OD2        44.1640   60.1963   83.5454 O.co2       1 DVA      -0.5688
     64 N          47.9096   57.8618   80.4862 N.am        1 DVA      -0.2671
     65 CA         48.6888   57.9455   79.2803 C.3         1 DVA       0.1173
     66 C          49.8479   57.0244   79.3177 C.2         1 DVA       0.0623
     67 O          51.1121   57.5096   79.2464 O.co2       1 DVA      -0.5665
     68 OXT        49.6836   55.7004   79.5263 O.co2       1 DVA      -0.5665
     69 CB         47.8038   57.6810   78.0347 C.3         1 DVA       0.0789
     70 OG         47.6001   56.2990   77.7558 O.3         1 DVA      -0.3910
     71 H1         36.9184   48.6663   96.0811 H           1 DVA       0.2015
     72 H2         36.3116   49.3740   94.6993 H           1 DVA       0.2015
     73 H3         35.3739   48.2972   95.5573 H           1 DVA       0.2015
     74 H4         36.3315   50.9019   96.4643 H           1 DVA       0.1101
     75 H5         34.6881   50.5243   98.4082 H           1 DVA       0.0376
     76 H6         35.0088   47.5598   97.6830 H           1 DVA       0.0236
     77 H7         33.4900   48.4711   97.6398 H           1 DVA       0.0236
     78 H8         34.3048   48.2020   99.1726 H           1 DVA       0.0236
     79 H9         37.2497   48.8534   98.3262 H           1 DVA       0.0236
     80 H10        36.4016   49.3924   99.7870 H           1 DVA       0.0236
     81 H11        37.1379   50.5813   98.7121 H           1 DVA       0.0236
     82 H12        35.6137   53.2007   96.2539 H           1 DVA       0.0802
     83 H13        34.6863   54.3982   93.6298 H           1 DVA       0.0313
     84 H14        34.9134   55.1830   95.2107 H           1 DVA       0.0313
     85 H15        32.4253   54.5479   94.2948 H           1 DVA       0.0287
     86 H16        32.8396   54.3355   96.0202 H           1 DVA       0.0287
     87 H17        32.1423   52.1542   95.4867 H           1 DVA       0.0524
     88 H18        32.7878   52.2157   93.8193 H           1 DVA       0.0524
     89 H19        37.1527   54.5552   94.5727 H           1 DVA       0.1881
     90 H20        39.2609   52.8893   94.1169 H           1 DVA       0.0763
     91 H21        39.0966   54.5730   93.6103 H           1 DVA       0.0763
     92 H22        40.5139   53.8012   91.9349 H           1 DVA       0.1884
     93 H23        39.2774   52.2258   89.7820 H           1 DVA       0.0823
     94 H24        40.9614   50.8888   90.7585 H           1 DVA       0.0606
     95 H25        42.0925   52.2364   90.9337 H           1 DVA       0.0606
     96 H26        42.2691   50.6074   89.1447 H           1 DVA       0.2097
     97 H27        42.2400   54.2118   89.7860 H           1 DVA       0.1883
     98 H28        42.9751   55.8347   88.5233 H           1 DVA       0.0801
     99 H29        41.4455   57.1817   89.7576 H           1 DVA       0.0337
    100 H30        40.0800   56.6777   88.7869 H           1 DVA       0.0337
    101 H31        41.9231   57.9139   86.9255 H           1 DVA       0.0504
    102 H32        41.9771   58.9133   88.3628 H           1 DVA       0.0504
    103 H33        38.5193   59.8139   88.0840 H           1 DVA       0.1814
    104 H34        39.6993   59.5542   89.2448 H           1 DVA       0.1814
    105 H35        43.6948   54.6197   86.7588 H           1 DVA       0.1885
    106 H36        42.6232   55.1654   84.2934 H           1 DVA       0.0817
    107 H37        41.1217   53.0623   85.5751 H           1 DVA       0.0420
    108 H38        42.0836   52.2253   84.3966 H           1 DVA       0.0420
    109 H39        38.9599   54.2172   84.6419 H           1 DVA       0.0729
    110 H40        39.8826   54.2700   80.6436 H           1 DVA       0.1199
    111 H41        38.1205   54.7728   82.3489 H           1 DVA       0.2361
    112 H42        44.9392   55.6219   84.9503 H           1 DVA       0.1885
    113 H43        46.3597   54.4044   82.9142 H           1 DVA       0.0821
    114 H44        47.2402   53.6296   85.7228 H           1 DVA       0.0453
    115 H45        48.4854   53.9371   84.5296 H           1 DVA       0.0453
    116 H46        47.9277   52.7717   82.1181 H           1 DVA       0.0530
    117 H47        46.8305   51.2797   85.9184 H           1 DVA       0.0530
    118 H48        47.8219   50.5426   81.2169 H           1 DVA       0.0525
    119 H49        46.7514   49.0495   85.0086 H           1 DVA       0.0525
    120 H50        46.6656   48.3825   81.7515 H           1 DVA       0.2458
    121 H51        46.3430   56.4985   82.2321 H           1 DVA       0.1884
    122 H52        47.8551   58.5385   83.7287 H           1 DVA       0.0819
    123 H53        45.5562   58.8160   81.7302 H           1 DVA       0.0478
    124 H54        46.5599   60.1579   82.2855 H           1 DVA       0.0478
    125 H55        46.9882   57.5725   80.3904 H           1 DVA       0.1876
    126 H56        49.0575   58.9711   79.1948 H           1 DVA       0.0749
    127 H57        48.2704   58.1313   77.1559 H           1 DVA       0.0599
    128 H58        46.8277   58.1513   78.1694 H           1 DVA       0.0599
    129 H59        47.1755   55.9229   78.5535 H           1 DVA       0.2096
@<TRIPOS>BOND
     1     1     2   1
     2     2     3   1
     3     2     6   1
     4     3     4   1
     5     3     5   1
     6     6     7   2
     7     6     8  am
     8     8     9   1
     9     8    12   1
    10     9    10   1
    11     9    13   1
    12    10    11   1
    13    11    12   1
    14    13    14   2
    15    13    15  am
    16    15    16   1
    17    16    17   1
    18    17    18   2
    19    17    19  am
    20    19    20   1
    21    20    21   1
    22    20    23   1
    23    21    22   2
    24    21    25  am
    25    23    24   1
    26    25    26   1
    27    26    27   1
    28    26    29   1
    29    27    28   2
    30    27    34  am
    31    29    30   1
    32    30    31   1
    33    31    32   2
    34    31    33  am
    35    34    35   1
    36    35    36   1
    37    35    38   1
    38    36    37   2
    39    36    44  am
    40    38    39   1
    41    39    40   1
    42    39    41   2
    43    40    42   2
    44    41    43   1
    45    42    43   1
    46    44    45   1
    47    45    46   1
    48    45    48   1
    49    46    47   2
    50    46    56  am
    51    48    49   1
    52    49    50  ar
    53    49    51  ar
    54    50    52  ar
    55    51    53  ar
    56    52    54  ar
    57    53    54  ar
    58    54    55   1
    59    56    57   1
    60    57    58   1
    61    57    60   1
    62    58    59   2
    63    58    64  am
    64    60    61   1
    65    61    62  ar
    66    61    63  ar
    67    64    65   1
    68    65    66   1
    69    65    69   1
    70    66    67  ar
    71    66    68  ar
    72    69    70   1
    73     1    71   1
    74     1    72   1
    75     1    73   1
    76     2    74   1
    77     3    75   1
    78     4    76   1
    79     4    77   1
    80     4    78   1
    81     5    79   1
    82     5    80   1
    83     5    81   1
    84     9    82   1
    85    10    83   1
    86    10    84   1
    87    11    85   1
    88    11    86   1
    89    12    87   1
    90    12    88   1
    91    15    89   1
    92    16    90   1
    93    16    91   1
    94    19    92   1
    95    20    93   1
    96    23    94   1
    97    23    95   1
    98    24    96   1
    99    25    97   1
   100    26    98   1
   101    29    99   1
   102    29   100   1
   103    30   101   1
   104    30   102   1
   105    33   103   1
   106    33   104   1
   107    34   105   1
   108    35   106   1
   109    38   107   1
   110    38   108   1
   111    41   109   1
   112    42   110   1
   113    43   111   1
   114    44   112   1
   115    45   113   1
   116    48   114   1
   117    48   115   1
   118    50   116   1
   119    51   117   1
   120    52   118   1
   121    53   119   1
   122    55   120   1
   123    56   121   1
   124    57   122   1
   125    60   123   1
   126    60   124   1
   127    64   125   1
   128    65   126   1
   129    69   127   1
   130    69   128   1
   131    70   129   1
@<TRIPOS>SUBSTRUCTURE
     1  DVA      2

