@<TRIPOS>MOLECULE
1zea_ligand_053
   129   131
SMALL
GAST_HUCK
****
This file was generated by PARSER (from files_GN.cpp)

@<TRIPOS>ATOM
      1 N          39.2226   60.4800  100.6175 N.4         1 DVA       0.2381
      2 CA         38.2516   61.5508  100.3241 C.3         1 DVA       0.0675
      3 CB         38.3197   62.6953  101.3912 C.3         1 DVA       0.0139
      4 CG1        37.6406   63.9971  100.8799 C.3         1 DVA      -0.0553
      5 CG2        37.7861   62.3179  102.8056 C.3         1 DVA      -0.0553
      6 C          36.9239   60.9564  100.1115 C.2         1 DVA       0.2295
      7 O          36.4311   60.4141  101.0945 O.2         1 DVA      -0.3905
      8 N          36.2430   60.9122   98.9466 N.am        1 DVA      -0.2471
      9 CA         36.6974   61.4290   97.6766 C.3         1 DVA       0.1339
     10 CB         35.4481   61.4053   96.7598 C.3         1 DVA      -0.0104
     11 CG         34.5667   60.3011   97.3495 C.3         1 DVA      -0.0281
     12 CD         34.9460   60.2974   98.8414 C.3         1 DVA       0.0371
     13 C          37.8041   60.6354   97.1467 C.2         1 DVA       0.2039
     14 O          37.6117   59.4517   96.8923 O.2         1 DVA      -0.3944
     15 N          39.0179   61.1719   97.0294 N.am        1 DVA      -0.2664
     16 CA         40.2184   60.4673   96.6973 C.3         1 DVA       0.1201
     17 C          40.0777   59.7075   95.4706 C.2         1 DVA       0.2008
     18 O          40.1255   60.3076   94.4030 O.2         1 DVA      -0.3947
     19 N          39.7550   58.4219   95.5362 N.am        1 DVA      -0.2618
     20 CA         39.3451   57.5975   94.4374 C.3         1 DVA       0.1539
     21 C          40.4193   57.4193   93.4714 C.2         1 DVA       0.2062
     22 O          41.4935   56.9362   93.8271 O.2         1 DVA      -0.3943
     23 CB         38.7805   56.2432   94.9364 C.3         1 DVA       0.0843
     24 OG         39.7711   55.4098   95.5426 O.3         1 DVA      -0.3903
     25 N          40.2172   57.8193   92.2249 N.am        1 DVA      -0.2635
     26 CA         41.1174   57.7603   91.1116 C.3         1 DVA       0.1330
     27 C          40.5174   56.8274   90.1678 C.2         1 DVA       0.2041
     28 O          39.5026   57.1451   89.5615 O.2         1 DVA      -0.3944
     29 CB         41.3427   59.2230   90.5942 C.3         1 DVA       0.0045
     30 CG         41.5340   59.4474   89.0676 C.3         1 DVA       0.0412
     31 CD         40.3227   59.3103   88.2719 C.2         1 DVA       0.1737
     32 OE1        40.3803   58.9053   87.1114 O.2         1 DVA      -0.3973
     33 NE2        39.1498   59.6843   88.7234 N.am        1 DVA      -0.3009
     34 N          41.0620   55.6325   90.0049 N.am        1 DVA      -0.2625
     35 CA         40.6710   54.5887   89.0901 C.3         1 DVA       0.1369
     36 C          41.5700   54.5494   87.9410 C.2         1 DVA       0.2055
     37 O          42.5835   55.2496   87.9136 O.2         1 DVA      -0.3942
     38 CB         40.5807   53.2230   89.8369 C.3         1 DVA       0.0145
     39 CG         41.8525   52.7608   90.4282 C.2         1 DVA      -0.0027
     40 ND1        42.4733   53.3281   91.4783 N.2         1 DVA      -0.3252
     41 CD2        42.6427   51.6889   90.0037 C.2         1 DVA       0.0291
     42 CE1        43.6120   52.6418   91.6928 C.2         1 DVA       0.0907
     43 NE2        43.7149   51.6511   90.7920 N.pl3       1 DVA      -0.2752
     44 N          41.2744   53.7614   86.9058 N.am        1 DVA      -0.2620
     45 CA         41.9646   53.6802   85.6523 C.3         1 DVA       0.1390
     46 C          42.6141   52.3770   85.5665 C.2         1 DVA       0.2058
     47 O          42.3184   51.5750   84.6871 O.2         1 DVA      -0.3942
     48 CB         40.9486   54.0585   84.5215 C.3         1 DVA       0.0163
     49 CG         41.4285   53.9705   83.1130 C.ar        1 DVA      -0.0493
     50 CD1        40.5443   53.5826   82.0755 C.ar        1 DVA      -0.0685
     51 CD2        42.7516   54.3391   82.7540 C.ar        1 DVA      -0.0685
     52 CE1        40.9628   53.5587   80.7341 C.ar        1 DVA      -0.0398
     53 CE2        43.1819   54.2764   81.4205 C.ar        1 DVA      -0.0398
     54 CZ         42.2942   53.8941   80.4054 C.ar        1 DVA       0.0805
     55 OH         42.6881   53.8600   79.1032 O.3         1 DVA      -0.3376
     56 N          43.5913   52.1140   86.4382 N.am        1 DVA      -0.2620
     57 CA         44.4632   50.9784   86.4898 C.3         1 DVA       0.1423
     58 C          45.1122   50.7730   85.2037 C.2         1 DVA       0.2051
     59 O          45.7795   51.6784   84.7203 O.2         1 DVA      -0.3943
     60 CB         45.4999   51.1993   87.6364 C.3         1 DVA       0.0406
     61 CG         46.5706   50.1830   87.7144 C.2         1 DVA       0.0393
     62 OD1        46.7909   49.4888   88.8571 O.co2       1 DVA      -0.5688
     63 OD2        47.5452   50.1600   86.7771 O.co2       1 DVA      -0.5688
     64 N          44.9426   49.6202   84.5502 N.am        1 DVA      -0.2671
     65 CA         45.4675   49.2584   83.2691 C.3         1 DVA       0.1173
     66 C          44.9191   50.1426   82.2122 C.2         1 DVA       0.0623
     67 O          43.5798   50.2691   82.0732 O.co2       1 DVA      -0.5665
     68 OXT        45.7079   50.9304   81.4473 O.co2       1 DVA      -0.5665
     69 CB         47.0224   49.1556   83.2917 C.3         1 DVA       0.0789
     70 OG         47.4808   48.1231   82.4212 O.3         1 DVA      -0.3910
     71 H1         40.1567   60.8820  100.7237 H           1 DVA       0.2015
     72 H2         39.2346   59.8063   99.8493 H           1 DVA       0.2015
     73 H3         38.9626   59.9983  101.4817 H           1 DVA       0.2015
     74 H4         38.6243   61.9908   99.3997 H           1 DVA       0.1101
     75 H5         39.3800   62.9350  101.5240 H           1 DVA       0.0376
     76 H6         37.7581   64.8017  101.6066 H           1 DVA       0.0236
     77 H7         36.5742   63.8366  100.7071 H           1 DVA       0.0236
     78 H8         38.0997   64.3193   99.9430 H           1 DVA       0.0236
     79 H9         38.2096   61.3701  103.1395 H           1 DVA       0.0236
     80 H10        36.6989   62.2387  102.8073 H           1 DVA       0.0236
     81 H11        38.0712   63.0863  103.5272 H           1 DVA       0.0236
     82 H12        36.9940   62.4773   97.7886 H           1 DVA       0.0802
     83 H13        35.6827   61.2215   95.7075 H           1 DVA       0.0313
     84 H14        34.9170   62.3613   96.8321 H           1 DVA       0.0313
     85 H15        34.8170   59.3397   96.8890 H           1 DVA       0.0287
     86 H16        33.5037   60.5021   97.1992 H           1 DVA       0.0287
     87 H17        34.2143   60.8719   99.4180 H           1 DVA       0.0524
     88 H18        34.9639   59.2668   99.2085 H           1 DVA       0.0524
     89 H19        39.1080   62.1141   97.2430 H           1 DVA       0.1881
     90 H20        40.4948   59.8201   97.5347 H           1 DVA       0.0763
     91 H21        41.0232   61.1958   96.5747 H           1 DVA       0.0763
     92 H22        39.6959   58.0304   96.4246 H           1 DVA       0.1884
     93 H23        38.4992   58.1095   93.9642 H           1 DVA       0.0823
     94 H24        38.3419   55.6934   94.0994 H           1 DVA       0.0606
     95 H25        37.9867   56.4235   95.6660 H           1 DVA       0.0606
     96 H26        39.9900   55.8368   96.3958 H           1 DVA       0.2097
     97 H27        39.3457   58.2023   92.0365 H           1 DVA       0.1883
     98 H28        42.0929   57.3820   91.4248 H           1 DVA       0.0801
     99 H29        42.2567   59.5861   91.0863 H           1 DVA       0.0337
    100 H30        40.5418   59.8773   90.9496 H           1 DVA       0.0337
    101 H31        42.3178   58.7767   88.6996 H           1 DVA       0.0504
    102 H32        41.8905   60.4720   88.9206 H           1 DVA       0.0504
    103 H33        38.3504   59.5579   88.1916 H           1 DVA       0.1814
    104 H34        39.0536   60.0285   89.6251 H           1 DVA       0.1814
    105 H35        41.8627   55.4522   90.5250 H           1 DVA       0.1885
    106 H36        39.6680   54.8049   88.7029 H           1 DVA       0.0817
    107 H37        40.2073   52.4629   89.1481 H           1 DVA       0.0420
    108 H38        39.8460   53.3048   90.6417 H           1 DVA       0.0420
    109 H39        42.4464   51.0642   89.2185 H           1 DVA       0.0729
    110 H40        44.2953   52.8579   92.4154 H           1 DVA       0.1199
    111 H41        44.4513   51.0238   90.7285 H           1 DVA       0.2361
    112 H42        40.4767   53.2178   86.9966 H           1 DVA       0.1885
    113 H43        42.7615   54.4293   85.6037 H           1 DVA       0.0821
    114 H44        40.6396   55.0972   84.6843 H           1 DVA       0.0453
    115 H45        40.0538   53.4433   84.6506 H           1 DVA       0.0453
    116 H46        39.5756   53.3348   82.2880 H           1 DVA       0.0530
    117 H47        43.4135   54.6553   83.4630 H           1 DVA       0.0530
    118 H48        40.3048   53.2943   80.0000 H           1 DVA       0.0525
    119 H49        44.1461   54.5328   81.1885 H           1 DVA       0.0525
    120 H50        43.6691   53.8188   79.1181 H           1 DVA       0.2458
    121 H51        43.7532   52.8098   87.0992 H           1 DVA       0.1884
    122 H52        43.8609   50.1029   86.7660 H           1 DVA       0.0819
    123 H53        44.9643   51.2101   88.5894 H           1 DVA       0.0478
    124 H54        45.9707   52.1815   87.5263 H           1 DVA       0.0478
    125 H55        44.3915   48.9535   84.9913 H           1 DVA       0.1876
    126 H56        45.0907   48.2513   83.0621 H           1 DVA       0.0749
    127 H57        47.3690   48.9093   84.2956 H           1 DVA       0.0599
    128 H58        47.4854   50.0974   83.0010 H           1 DVA       0.0599
    129 H59        46.8938   48.1526   81.6366 H           1 DVA       0.2096
@<TRIPOS>BOND
     1     1     2   1
     2     2     3   1
     3     2     6   1
     4     3     4   1
     5     3     5   1
     6     6     7   2
     7     6     8  am
     8     8     9   1
     9     8    12   1
    10     9    10   1
    11     9    13   1
    12    10    11   1
    13    11    12   1
    14    13    14   2
    15    13    15  am
    16    15    16   1
    17    16    17   1
    18    17    18   2
    19    17    19  am
    20    19    20   1
    21    20    21   1
    22    20    23   1
    23    21    22   2
    24    21    25  am
    25    23    24   1
    26    25    26   1
    27    26    27   1
    28    26    29   1
    29    27    28   2
    30    27    34  am
    31    29    30   1
    32    30    31   1
    33    31    32   2
    34    31    33  am
    35    34    35   1
    36    35    36   1
    37    35    38   1
    38    36    37   2
    39    36    44  am
    40    38    39   1
    41    39    40   1
    42    39    41   2
    43    40    42   2
    44    41    43   1
    45    42    43   1
    46    44    45   1
    47    45    46   1
    48    45    48   1
    49    46    47   2
    50    46    56  am
    51    48    49   1
    52    49    50  ar
    53    49    51  ar
    54    50    52  ar
    55    51    53  ar
    56    52    54  ar
    57    53    54  ar
    58    54    55   1
    59    56    57   1
    60    57    58   1
    61    57    60   1
    62    58    59   2
    63    58    64  am
    64    60    61   1
    65    61    62  ar
    66    61    63  ar
    67    64    65   1
    68    65    66   1
    69    65    69   1
    70    66    67  ar
    71    66    68  ar
    72    69    70   1
    73     1    71   1
    74     1    72   1
    75     1    73   1
    76     2    74   1
    77     3    75   1
    78     4    76   1
    79     4    77   1
    80     4    78   1
    81     5    79   1
    82     5    80   1
    83     5    81   1
    84     9    82   1
    85    10    83   1
    86    10    84   1
    87    11    85   1
    88    11    86   1
    89    12    87   1
    90    12    88   1
    91    15    89   1
    92    16    90   1
    93    16    91   1
    94    19    92   1
    95    20    93   1
    96    23    94   1
    97    23    95   1
    98    24    96   1
    99    25    97   1
   100    26    98   1
   101    29    99   1
   102    29   100   1
   103    30   101   1
   104    30   102   1
   105    33   103   1
   106    33   104   1
   107    34   105   1
   108    35   106   1
   109    38   107   1
   110    38   108   1
   111    41   109   1
   112    42   110   1
   113    43   111   1
   114    44   112   1
   115    45   113   1
   116    48   114   1
   117    48   115   1
   118    50   116   1
   119    51   117   1
   120    52   118   1
   121    53   119   1
   122    55   120   1
   123    56   121   1
   124    57   122   1
   125    60   123   1
   126    60   124   1
   127    64   125   1
   128    65   126   1
   129    69   127   1
   130    69   128   1
   131    70   129   1
@<TRIPOS>SUBSTRUCTURE
     1  DVA      2

