@<TRIPOS>MOLECULE
1zea_ligand_094
   129   131
SMALL
GAST_HUCK
****
This file was generated by PARSER (from files_GN.cpp)

@<TRIPOS>ATOM
      1 N          51.0275   57.9705   78.8911 N.4         1 DVA       0.2381
      2 CA         51.8426   57.2877   77.8706 C.3         1 DVA       0.0675
      3 CB         53.0275   58.1914   77.3603 C.3         1 DVA       0.0139
      4 CG1        52.6249   59.6414   76.9517 C.3         1 DVA      -0.0553
      5 CG2        54.1858   58.2568   78.4000 C.3         1 DVA      -0.0553
      6 C          50.9716   56.7905   76.7970 C.2         1 DVA       0.2295
      7 O          50.3745   57.6478   76.1617 O.2         1 DVA      -0.3905
      8 N          50.7666   55.4963   76.4689 N.am        1 DVA      -0.2471
      9 CA         51.2170   54.3323   77.2087 C.3         1 DVA       0.1339
     10 CB         50.7771   53.1162   76.3454 C.3         1 DVA      -0.0104
     11 CG         50.5300   53.6944   74.9525 C.3         1 DVA      -0.0281
     12 CD         50.0819   55.1296   75.2574 C.3         1 DVA       0.0371
     13 C          50.7028   54.1835   78.5703 C.2         1 DVA       0.2039
     14 O          49.8809   54.9766   79.0082 O.2         1 DVA      -0.3944
     15 N          51.0710   53.1257   79.2935 N.am        1 DVA      -0.2664
     16 CA         50.5348   52.7231   80.5594 C.3         1 DVA       0.1201
     17 C          49.1628   52.2370   80.5269 C.2         1 DVA       0.2008
     18 O          48.4147   52.6238   79.6420 O.2         1 DVA      -0.3947
     19 N          48.7381   51.4296   81.4975 N.am        1 DVA      -0.2618
     20 CA         47.4467   50.8358   81.7558 C.3         1 DVA       0.1539
     21 C          46.8470   51.3790   82.9767 C.2         1 DVA       0.2062
     22 O          47.2815   52.4126   83.4694 O.2         1 DVA      -0.3943
     23 CB         46.4197   50.8270   80.5844 C.3         1 DVA       0.0843
     24 OG         45.8783   52.1203   80.3271 O.3         1 DVA      -0.3903
     25 N          45.7984   50.7610   83.5069 N.am        1 DVA      -0.2635
     26 CA         45.0098   51.1556   84.6423 C.3         1 DVA       0.1330
     27 C          43.6101   51.3831   84.2694 C.2         1 DVA       0.2041
     28 O          43.1106   50.7884   83.3219 O.2         1 DVA      -0.3944
     29 CB         45.1530   50.1198   85.8018 C.3         1 DVA       0.0045
     30 CG         45.1530   48.6097   85.4206 C.3         1 DVA       0.0412
     31 CD         44.0285   48.1501   84.6307 C.2         1 DVA       0.1737
     32 OE1        44.2020   47.5710   83.5666 O.2         1 DVA      -0.3973
     33 NE2        42.7929   48.3090   85.0432 N.am        1 DVA      -0.3009
     34 N          42.8891   52.2306   84.9926 N.am        1 DVA      -0.2625
     35 CA         41.5093   52.6108   84.8054 C.3         1 DVA       0.1369
     36 C          41.1238   53.4417   85.9526 C.2         1 DVA       0.2055
     37 O          40.7125   54.5858   85.8037 O.2         1 DVA      -0.3942
     38 CB         41.1732   53.2088   83.3838 C.3         1 DVA       0.0145
     39 CG         42.2805   53.7788   82.5827 C.2         1 DVA      -0.0027
     40 ND1        42.4151   53.5833   81.2588 N.2         1 DVA      -0.3252
     41 CD2        43.3810   54.5264   83.0048 C.2         1 DVA       0.0291
     42 CE1        43.5531   54.1786   80.8719 C.2         1 DVA       0.0907
     43 NE2        44.1511   54.7341   81.9353 N.pl3       1 DVA      -0.2752
     44 N          41.1899   52.9118   87.1719 N.am        1 DVA      -0.2620
     45 CA         40.8437   53.5382   88.4286 C.3         1 DVA       0.1390
     46 C          40.8296   52.5385   89.4992 C.2         1 DVA       0.2058
     47 O          41.6414   51.6193   89.4655 O.2         1 DVA      -0.3942
     48 CB         41.8146   54.7134   88.7839 C.3         1 DVA       0.0163
     49 CG         41.2354   55.7122   89.7270 C.ar        1 DVA      -0.0493
     50 CD1        40.2259   56.5999   89.2856 C.ar        1 DVA      -0.0685
     51 CD2        41.7031   55.8312   91.0591 C.ar        1 DVA      -0.0685
     52 CE1        39.7038   57.5875   90.1435 C.ar        1 DVA      -0.0398
     53 CE2        41.1784   56.8149   91.9178 C.ar        1 DVA      -0.0398
     54 CZ         40.1800   57.6948   91.4624 C.ar        1 DVA       0.0805
     55 OH         39.6904   58.6483   92.2912 O.3         1 DVA      -0.3376
     56 N          40.0273   52.6771   90.5547 N.am        1 DVA      -0.2620
     57 CA         39.8492   51.7259   91.6254 C.3         1 DVA       0.1423
     58 C          40.5375   52.2091   92.8199 C.2         1 DVA       0.2051
     59 O          39.8998   52.6359   93.7779 O.2         1 DVA      -0.3943
     60 CB         38.3165   51.4436   91.7814 C.3         1 DVA       0.0406
     61 CG         38.0262   50.2577   92.6139 C.2         1 DVA       0.0393
     62 OD1        37.9976   50.3547   93.9619 O.co2       1 DVA      -0.5688
     63 OD2        37.7160   49.0711   92.0427 O.co2       1 DVA      -0.5688
     64 N          41.8678   52.1444   92.8604 N.am        1 DVA      -0.2671
     65 CA         42.7773   52.4416   93.9350 C.3         1 DVA       0.1173
     66 C          42.8044   53.8591   94.3694 C.2         1 DVA       0.0623
     67 O          41.7108   54.6484   94.3234 O.co2       1 DVA      -0.5665
     68 OXT        43.8559   54.3163   95.0823 O.co2       1 DVA      -0.5665
     69 CB         42.6791   51.4595   95.1361 C.3         1 DVA       0.0789
     70 OG         41.4983   51.6235   95.9140 O.3         1 DVA      -0.3910
     71 H1         51.6256   58.2883   79.6557 H           1 DVA       0.2015
     72 H2         50.3302   57.3245   79.2623 H           1 DVA       0.2015
     73 H3         50.5516   58.7737   78.4766 H           1 DVA       0.2015
     74 H4         52.2958   56.4411   78.3844 H           1 DVA       0.1101
     75 H5         53.4518   57.7161   76.4680 H           1 DVA       0.0376
     76 H6         53.4936   60.1864   76.5740 H           1 DVA       0.0236
     77 H7         52.2232   60.1892   77.8063 H           1 DVA       0.0236
     78 H8         51.8779   59.6376   76.1593 H           1 DVA       0.0236
     79 H9         54.5593   57.2530   78.6184 H           1 DVA       0.0236
     80 H10        53.8445   58.7127   79.3324 H           1 DVA       0.0236
     81 H11        55.0223   58.8446   78.0111 H           1 DVA       0.0236
     82 H12        52.3118   54.3537   77.2417 H           1 DVA       0.0802
     83 H13        49.8407   52.6749   76.7065 H           1 DVA       0.0313
     84 H14        51.5437   52.3367   76.3210 H           1 DVA       0.0313
     85 H15        49.7674   53.1347   74.4011 H           1 DVA       0.0287
     86 H16        51.4627   53.7009   74.3778 H           1 DVA       0.0287
     87 H17        50.3470   55.7684   74.4083 H           1 DVA       0.0524
     88 H18        48.9991   55.1713   75.4174 H           1 DVA       0.0524
     89 H19        51.7400   52.5434   78.9022 H           1 DVA       0.1881
     90 H20        50.6057   53.5501   81.2697 H           1 DVA       0.0763
     91 H21        51.1753   51.9158   80.9278 H           1 DVA       0.0763
     92 H22        49.4149   51.1805   82.1467 H           1 DVA       0.1884
     93 H23        47.6770   49.7837   81.9635 H           1 DVA       0.0823
     94 H24        45.5950   50.1542   80.8127 H           1 DVA       0.0606
     95 H25        46.8933   50.4562   79.6748 H           1 DVA       0.0606
     96 H26        45.4809   52.4039   81.1777 H           1 DVA       0.2097
     97 H27        45.5116   49.9496   83.0566 H           1 DVA       0.1883
     98 H28        45.3890   52.1069   85.0308 H           1 DVA       0.0801
     99 H29        44.3754   50.2938   86.5509 H           1 DVA       0.0337
    100 H30        46.1059   50.3131   86.3030 H           1 DVA       0.0337
    101 H31        45.1566   48.0253   86.3447 H           1 DVA       0.0504
    102 H32        46.0890   48.3935   84.8978 H           1 DVA       0.0504
    103 H33        42.0525   47.9826   84.5060 H           1 DVA       0.1814
    104 H34        42.6127   48.7773   85.8738 H           1 DVA       0.1814
    105 H35        43.3412   52.6249   85.7557 H           1 DVA       0.1885
    106 H36        40.9145   51.6957   84.8988 H           1 DVA       0.0817
    107 H37        40.3830   53.9635   83.4393 H           1 DVA       0.0420
    108 H38        40.7476   52.4008   82.7830 H           1 DVA       0.0420
    109 H39        43.5860   54.8247   83.9599 H           1 DVA       0.0729
    110 H40        43.9097   54.1949   79.9163 H           1 DVA       0.1199
    111 H41        44.9975   55.2096   81.9241 H           1 DVA       0.2361
    112 H42        41.4687   51.9815   87.2119 H           1 DVA       0.1885
    113 H43        39.8239   53.9191   88.3099 H           1 DVA       0.0821
    114 H44        42.0977   55.2573   87.8813 H           1 DVA       0.0453
    115 H45        42.7476   54.2998   89.1815 H           1 DVA       0.0453
    116 H46        39.8673   56.5427   88.3299 H           1 DVA       0.0530
    117 H47        42.4317   55.2035   91.4074 H           1 DVA       0.0530
    118 H48        38.9764   58.2233   89.8093 H           1 DVA       0.0525
    119 H49        41.5285   56.8952   92.8766 H           1 DVA       0.0525
    120 H50        39.1095   58.1654   92.9167 H           1 DVA       0.2458
    121 H51        39.4736   53.4728   90.5868 H           1 DVA       0.1884
    122 H52        40.3003   50.7638   91.3598 H           1 DVA       0.0819
    123 H53        37.8907   51.2700   90.7934 H           1 DVA       0.0478
    124 H54        37.8050   52.3142   92.2007 H           1 DVA       0.0478
    125 H55        42.2855   51.8208   92.0477 H           1 DVA       0.1876
    126 H56        43.7615   52.2603   93.4933 H           1 DVA       0.0749
    127 H57        43.5339   51.6073   95.8006 H           1 DVA       0.0599
    128 H58        42.7161   50.4286   94.7769 H           1 DVA       0.0599
    129 H59        40.7702   51.3226   95.3334 H           1 DVA       0.2096
@<TRIPOS>BOND
     1     1     2   1
     2     2     3   1
     3     2     6   1
     4     3     4   1
     5     3     5   1
     6     6     7   2
     7     6     8  am
     8     8     9   1
     9     8    12   1
    10     9    10   1
    11     9    13   1
    12    10    11   1
    13    11    12   1
    14    13    14   2
    15    13    15  am
    16    15    16   1
    17    16    17   1
    18    17    18   2
    19    17    19  am
    20    19    20   1
    21    20    21   1
    22    20    23   1
    23    21    22   2
    24    21    25  am
    25    23    24   1
    26    25    26   1
    27    26    27   1
    28    26    29   1
    29    27    28   2
    30    27    34  am
    31    29    30   1
    32    30    31   1
    33    31    32   2
    34    31    33  am
    35    34    35   1
    36    35    36   1
    37    35    38   1
    38    36    37   2
    39    36    44  am
    40    38    39   1
    41    39    40   1
    42    39    41   2
    43    40    42   2
    44    41    43   1
    45    42    43   1
    46    44    45   1
    47    45    46   1
    48    45    48   1
    49    46    47   2
    50    46    56  am
    51    48    49   1
    52    49    50  ar
    53    49    51  ar
    54    50    52  ar
    55    51    53  ar
    56    52    54  ar
    57    53    54  ar
    58    54    55   1
    59    56    57   1
    60    57    58   1
    61    57    60   1
    62    58    59   2
    63    58    64  am
    64    60    61   1
    65    61    62  ar
    66    61    63  ar
    67    64    65   1
    68    65    66   1
    69    65    69   1
    70    66    67  ar
    71    66    68  ar
    72    69    70   1
    73     1    71   1
    74     1    72   1
    75     1    73   1
    76     2    74   1
    77     3    75   1
    78     4    76   1
    79     4    77   1
    80     4    78   1
    81     5    79   1
    82     5    80   1
    83     5    81   1
    84     9    82   1
    85    10    83   1
    86    10    84   1
    87    11    85   1
    88    11    86   1
    89    12    87   1
    90    12    88   1
    91    15    89   1
    92    16    90   1
    93    16    91   1
    94    19    92   1
    95    20    93   1
    96    23    94   1
    97    23    95   1
    98    24    96   1
    99    25    97   1
   100    26    98   1
   101    29    99   1
   102    29   100   1
   103    30   101   1
   104    30   102   1
   105    33   103   1
   106    33   104   1
   107    34   105   1
   108    35   106   1
   109    38   107   1
   110    38   108   1
   111    41   109   1
   112    42   110   1
   113    43   111   1
   114    44   112   1
   115    45   113   1
   116    48   114   1
   117    48   115   1
   118    50   116   1
   119    51   117   1
   120    52   118   1
   121    53   119   1
   122    55   120   1
   123    56   121   1
   124    57   122   1
   125    60   123   1
   126    60   124   1
   127    64   125   1
   128    65   126   1
   129    69   127   1
   130    69   128   1
   131    70   129   1
@<TRIPOS>SUBSTRUCTURE
     1  DVA      2

