@<TRIPOS>MOLECULE
1zea_ligand_006
   129   131
SMALL
GAST_HUCK
****
This file was generated by PARSER (from files_GN.cpp)

@<TRIPOS>ATOM
      1 N          51.6254   49.5279   78.3024 N.4         1 DVA       0.2381
      2 CA         51.3289   50.8947   77.8362 C.3         1 DVA       0.0675
      3 CB         52.2481   51.3270   76.6382 C.3         1 DVA       0.0139
      4 CG1        53.7713   51.1044   76.8792 C.3         1 DVA      -0.0553
      5 CG2        51.8207   50.6439   75.3030 C.3         1 DVA      -0.0553
      6 C          51.3609   51.8419   78.9579 C.2         1 DVA       0.2295
      7 O          52.4069   51.8700   79.5964 O.2         1 DVA      -0.3905
      8 N          50.3772   52.6967   79.3005 N.am        1 DVA      -0.2471
      9 CA         49.0763   52.7867   78.6850 C.3         1 DVA       0.1339
     10 CB         48.5133   54.1632   79.1256 C.3         1 DVA      -0.0104
     11 CG         49.2465   54.4798   80.4358 C.3         1 DVA      -0.0281
     12 CD         50.5641   53.6913   80.3211 C.3         1 DVA       0.0371
     13 C          48.2153   51.6635   79.0657 C.2         1 DVA       0.2039
     14 O          47.6509   51.0240   78.1837 O.2         1 DVA      -0.3944
     15 N          48.0353   51.3504   80.3419 N.am        1 DVA      -0.2664
     16 CA         47.2211   50.2781   80.8346 C.3         1 DVA       0.1201
     17 C          46.8502   50.3977   82.2332 C.2         1 DVA       0.2008
     18 O          47.5025   51.0921   83.0044 O.2         1 DVA      -0.3947
     19 N          45.7437   49.7806   82.6380 N.am        1 DVA      -0.2618
     20 CA         45.1585   49.8458   83.9484 C.3         1 DVA       0.1539
     21 C          44.0673   50.8165   83.9793 C.2         1 DVA       0.2062
     22 O          43.0725   50.6242   83.2920 O.2         1 DVA      -0.3943
     23 CB         44.7056   48.4312   84.4110 C.3         1 DVA       0.0843
     24 OG         44.0171   47.7086   83.3858 O.3         1 DVA      -0.3903
     25 N          44.2286   51.9384   84.6686 N.am        1 DVA      -0.2635
     26 CA         43.3008   53.0199   84.8169 C.3         1 DVA       0.1330
     27 C          43.4027   53.4665   86.2026 C.2         1 DVA       0.2041
     28 O          43.7959   54.5957   86.4735 O.2         1 DVA      -0.3944
     29 CB         43.6231   54.1382   83.7725 C.3         1 DVA       0.0045
     30 CG         43.3419   53.7815   82.2842 C.3         1 DVA       0.0412
     31 CD         41.9878   54.0088   81.8060 C.2         1 DVA       0.1737
     32 OE1        41.0637   54.3129   82.5526 O.2         1 DVA      -0.3973
     33 NE2        41.7201   53.9460   80.5174 N.am        1 DVA      -0.3009
     34 N          43.1283   52.6129   87.1888 N.am        1 DVA      -0.2625
     35 CA         43.4042   52.8119   88.5903 C.3         1 DVA       0.1369
     36 C          42.2774   53.4532   89.2642 C.2         1 DVA       0.2055
     37 O          41.1577   53.3485   88.7716 O.2         1 DVA      -0.3942
     38 CB         43.7847   51.4386   89.2212 C.3         1 DVA       0.0145
     39 CG         44.4808   51.5599   90.5197 C.2         1 DVA      -0.0027
     40 ND1        43.9450   52.0377   91.6564 N.2         1 DVA      -0.3252
     41 CD2        45.8080   51.2337   90.7914 C.2         1 DVA       0.0291
     42 CE1        44.9025   52.0011   92.6027 C.2         1 DVA       0.0907
     43 NE2        46.0363   51.5238   92.0775 N.pl3       1 DVA      -0.2752
     44 N          42.4840   54.1680   90.3574 N.am        1 DVA      -0.2620
     45 CA         41.5028   54.8716   91.1364 C.3         1 DVA       0.1390
     46 C          41.6123   54.4208   92.5208 C.2         1 DVA       0.2058
     47 O          42.4219   54.9638   93.2762 O.2         1 DVA      -0.3942
     48 CB         41.7182   56.4104   90.9768 C.3         1 DVA       0.0163
     49 CG         41.1589   56.9642   89.7146 C.ar        1 DVA      -0.0493
     50 CD1        39.8618   57.5294   89.6961 C.ar        1 DVA      -0.0685
     51 CD2        41.9073   56.9554   88.5159 C.ar        1 DVA      -0.0685
     52 CE1        39.3373   58.0949   88.5231 C.ar        1 DVA      -0.0398
     53 CE2        41.3908   57.5311   87.3380 C.ar        1 DVA      -0.0398
     54 CZ         40.1022   58.1059   87.3443 C.ar        1 DVA       0.0805
     55 OH         39.5853   58.6837   86.2310 O.3         1 DVA      -0.3376
     56 N          40.7648   53.5141   92.9917 N.am        1 DVA      -0.2620
     57 CA         40.6105   53.0849   94.3609 C.3         1 DVA       0.1423
     58 C          39.3802   52.3028   94.4305 C.2         1 DVA       0.2051
     59 O          38.3766   52.8182   94.9118 O.2         1 DVA      -0.3943
     60 CB         41.8509   52.3020   94.8933 C.3         1 DVA       0.0406
     61 CG         41.5889   51.5631   96.1501 C.2         1 DVA       0.0393
     62 OD1        41.2076   52.2192   97.2694 O.co2       1 DVA      -0.5688
     63 OD2        41.6998   50.2153   96.1850 O.co2       1 DVA      -0.5688
     64 N          39.3715   51.0578   93.9725 N.am        1 DVA      -0.2671
     65 CA         38.2475   50.1733   93.8992 C.3         1 DVA       0.1173
     66 C          38.0163   49.8725   92.4728 C.2         1 DVA       0.0623
     67 O          37.8807   48.6090   92.0054 O.co2       1 DVA      -0.5665
     68 OXT        37.9243   50.8882   91.5802 O.co2       1 DVA      -0.5665
     69 CB         38.5332   48.9237   94.7700 C.3         1 DVA       0.0789
     70 OG         38.6863   49.2819   96.1400 O.3         1 DVA      -0.3910
     71 H1         51.6864   48.8973   77.5031 H           1 DVA       0.2015
     72 H2         50.8693   49.2055   78.9074 H           1 DVA       0.2015
     73 H3         52.5131   49.5147   78.8104 H           1 DVA       0.2015
     74 H4         50.3159   50.8249   77.4464 H           1 DVA       0.1101
     75 H5         52.1080   52.4049   76.4804 H           1 DVA       0.0376
     76 H6         54.3459   51.4505   76.0182 H           1 DVA       0.0236
     77 H7         53.9856   50.0458   77.0386 H           1 DVA       0.0236
     78 H8         54.1115   51.6679   77.7467 H           1 DVA       0.0236
     79 H9         50.7711   50.8650   75.0783 H           1 DVA       0.0236
     80 H10        51.9434   49.5585   75.3634 H           1 DVA       0.0236
     81 H11        52.4261   51.0158   74.4694 H           1 DVA       0.0236
     82 H12        49.1882   52.8274   77.5928 H           1 DVA       0.0802
     83 H13        47.4268   54.1650   79.2568 H           1 DVA       0.0313
     84 H14        48.7691   54.9269   78.3841 H           1 DVA       0.0313
     85 H15        48.6571   54.1291   81.2928 H           1 DVA       0.0287
     86 H16        49.4216   55.5554   80.5502 H           1 DVA       0.0287
     87 H17        51.3728   54.3696   80.0390 H           1 DVA       0.0524
     88 H18        50.8033   53.2298   81.2848 H           1 DVA       0.0524
     89 H19        48.4911   51.8996   81.0025 H           1 DVA       0.1881
     90 H20        47.7603   49.3392   80.6852 H           1 DVA       0.0763
     91 H21        46.2976   50.2477   80.2553 H           1 DVA       0.0763
     92 H22        45.2826   49.2386   81.9742 H           1 DVA       0.1884
     93 H23        45.9434   50.1347   84.6565 H           1 DVA       0.0823
     94 H24        44.0425   48.5053   85.2813 H           1 DVA       0.0606
     95 H25        45.5782   47.8438   84.7054 H           1 DVA       0.0606
     96 H26        44.6223   47.6997   82.6127 H           1 DVA       0.2097
     97 H27        45.0770   52.0523   85.1222 H           1 DVA       0.1883
     98 H28        42.2656   52.6990   84.6627 H           1 DVA       0.0801
     99 H29        44.6803   54.4009   83.8601 H           1 DVA       0.0337
    100 H30        43.0519   55.0420   84.0176 H           1 DVA       0.0337
    101 H31        43.5994   52.7344   82.1049 H           1 DVA       0.0504
    102 H32        44.0046   54.3902   81.6601 H           1 DVA       0.0504
    103 H33        40.8194   54.1374   80.1982 H           1 DVA       0.1814
    104 H34        42.4224   53.7203   79.8803 H           1 DVA       0.1814
    105 H35        42.7663   51.7431   86.9420 H           1 DVA       0.1885
    106 H36        44.2922   53.4519   88.6931 H           1 DVA       0.0817
    107 H37        44.4499   50.9009   88.5352 H           1 DVA       0.0420
    108 H38        42.8975   50.8128   89.3581 H           1 DVA       0.0420
    109 H39        46.4940   50.8588   90.1326 H           1 DVA       0.0729
    110 H40        44.7880   52.2982   93.5691 H           1 DVA       0.1199
    111 H41        46.8750   51.4100   92.5480 H           1 DVA       0.2361
    112 H42        43.3953   54.2029   90.6949 H           1 DVA       0.1885
    113 H43        40.4879   54.6510   90.7859 H           1 DVA       0.0821
    114 H44        42.7905   56.6378   91.0342 H           1 DVA       0.0453
    115 H45        41.2535   56.9283   91.8255 H           1 DVA       0.0453
    116 H46        39.2958   57.5543   90.5460 H           1 DVA       0.0530
    117 H47        42.8497   56.5508   88.4970 H           1 DVA       0.0530
    118 H48        38.4018   58.5073   88.5260 H           1 DVA       0.0525
    119 H49        41.9545   57.5358   86.4865 H           1 DVA       0.0525
    120 H50        39.9745   58.2073   85.4687 H           1 DVA       0.2458
    121 H51        40.1389   53.1335   92.3500 H           1 DVA       0.1884
    122 H52        40.4939   53.9865   94.9786 H           1 DVA       0.0819
    123 H53        42.6561   53.0032   95.1024 H           1 DVA       0.0478
    124 H54        42.2052   51.6042   94.1318 H           1 DVA       0.0478
    125 H55        40.2194   50.7063   93.6511 H           1 DVA       0.1876
    126 H56        37.3397   50.6515   94.2762 H           1 DVA       0.0749
    127 H57        39.4488   48.4276   94.4354 H           1 DVA       0.0599
    128 H58        37.6999   48.2218   94.6881 H           1 DVA       0.0599
    129 H59        38.8544   48.4344   96.6024 H           1 DVA       0.2096
@<TRIPOS>BOND
     1     1     2   1
     2     2     3   1
     3     2     6   1
     4     3     4   1
     5     3     5   1
     6     6     7   2
     7     6     8  am
     8     8     9   1
     9     8    12   1
    10     9    10   1
    11     9    13   1
    12    10    11   1
    13    11    12   1
    14    13    14   2
    15    13    15  am
    16    15    16   1
    17    16    17   1
    18    17    18   2
    19    17    19  am
    20    19    20   1
    21    20    21   1
    22    20    23   1
    23    21    22   2
    24    21    25  am
    25    23    24   1
    26    25    26   1
    27    26    27   1
    28    26    29   1
    29    27    28   2
    30    27    34  am
    31    29    30   1
    32    30    31   1
    33    31    32   2
    34    31    33  am
    35    34    35   1
    36    35    36   1
    37    35    38   1
    38    36    37   2
    39    36    44  am
    40    38    39   1
    41    39    40   1
    42    39    41   2
    43    40    42   2
    44    41    43   1
    45    42    43   1
    46    44    45   1
    47    45    46   1
    48    45    48   1
    49    46    47   2
    50    46    56  am
    51    48    49   1
    52    49    50  ar
    53    49    51  ar
    54    50    52  ar
    55    51    53  ar
    56    52    54  ar
    57    53    54  ar
    58    54    55   1
    59    56    57   1
    60    57    58   1
    61    57    60   1
    62    58    59   2
    63    58    64  am
    64    60    61   1
    65    61    62  ar
    66    61    63  ar
    67    64    65   1
    68    65    66   1
    69    65    69   1
    70    66    67  ar
    71    66    68  ar
    72    69    70   1
    73     1    71   1
    74     1    72   1
    75     1    73   1
    76     2    74   1
    77     3    75   1
    78     4    76   1
    79     4    77   1
    80     4    78   1
    81     5    79   1
    82     5    80   1
    83     5    81   1
    84     9    82   1
    85    10    83   1
    86    10    84   1
    87    11    85   1
    88    11    86   1
    89    12    87   1
    90    12    88   1
    91    15    89   1
    92    16    90   1
    93    16    91   1
    94    19    92   1
    95    20    93   1
    96    23    94   1
    97    23    95   1
    98    24    96   1
    99    25    97   1
   100    26    98   1
   101    29    99   1
   102    29   100   1
   103    30   101   1
   104    30   102   1
   105    33   103   1
   106    33   104   1
   107    34   105   1
   108    35   106   1
   109    38   107   1
   110    38   108   1
   111    41   109   1
   112    42   110   1
   113    43   111   1
   114    44   112   1
   115    45   113   1
   116    48   114   1
   117    48   115   1
   118    50   116   1
   119    51   117   1
   120    52   118   1
   121    53   119   1
   122    55   120   1
   123    56   121   1
   124    57   122   1
   125    60   123   1
   126    60   124   1
   127    64   125   1
   128    65   126   1
   129    69   127   1
   130    69   128   1
   131    70   129   1
@<TRIPOS>SUBSTRUCTURE
     1  DVA      2

