@<TRIPOS>MOLECULE
1zea_ligand_005
   129   131
SMALL
GAST_HUCK
****
This file was generated by PARSER (from files_GN.cpp)

@<TRIPOS>ATOM
      1 N          50.9528   49.9199   77.1183 N.4         1 DVA       0.2381
      2 CA         51.8041   51.0320   77.5879 C.3         1 DVA       0.0675
      3 CB         52.9835   51.3272   76.5934 C.3         1 DVA       0.0139
      4 CG1        52.4744   51.8155   75.2065 C.3         1 DVA      -0.0553
      5 CG2        53.9941   52.3657   77.1657 C.3         1 DVA      -0.0553
      6 C          52.2563   50.7082   78.9493 C.2         1 DVA       0.2295
      7 O          52.9504   49.6996   79.0384 O.2         1 DVA      -0.3905
      8 N          52.0014   51.4222   80.0620 N.am        1 DVA      -0.2471
      9 CA         51.2362   52.6414   80.1355 C.3         1 DVA       0.1339
     10 CB         51.5788   53.2558   81.5148 C.3         1 DVA      -0.0104
     11 CG         52.0163   52.0595   82.3685 C.3         1 DVA      -0.0281
     12 CD         52.5553   51.0535   81.3356 C.3         1 DVA       0.0371
     13 C          49.8018   52.4179   79.9549 C.2         1 DVA       0.2039
     14 O          49.2117   53.0690   79.0983 O.2         1 DVA      -0.3944
     15 N          49.1463   51.5420   80.7112 N.am        1 DVA      -0.2664
     16 CA         47.7319   51.2890   80.6905 C.3         1 DVA       0.1201
     17 C          47.2571   51.0026   82.0232 C.2         1 DVA       0.2008
     18 O          47.6549   51.7144   82.9393 O.2         1 DVA      -0.3947
     19 N          46.3634   50.0431   82.2299 N.am        1 DVA      -0.2618
     20 CA         45.8295   49.6467   83.5026 C.3         1 DVA       0.1539
     21 C          44.9909   50.6816   84.1087 C.2         1 DVA       0.2062
     22 O          45.3563   51.1499   85.1742 O.2         1 DVA      -0.3943
     23 CB         45.0633   48.3028   83.3924 C.3         1 DVA       0.0843
     24 OG         43.8459   48.3908   82.6502 O.3         1 DVA      -0.3903
     25 N          43.9210   51.1389   83.4592 N.am        1 DVA      -0.2635
     26 CA         42.9339   52.1238   83.8345 C.3         1 DVA       0.1330
     27 C          43.2334   52.8629   85.0645 C.2         1 DVA       0.2041
     28 O          43.7507   53.9693   84.9404 O.2         1 DVA      -0.3944
     29 CB         42.6824   53.0343   82.5895 C.3         1 DVA       0.0045
     30 CG         41.8287   54.3135   82.7674 C.3         1 DVA       0.0412
     31 CD         40.8270   54.2501   83.8204 C.2         1 DVA       0.1737
     32 OE1        40.9040   54.9787   84.8007 O.2         1 DVA      -0.3973
     33 NE2        39.8115   53.4186   83.7481 N.am        1 DVA      -0.3009
     34 N          43.1079   52.2536   86.2437 N.am        1 DVA      -0.2625
     35 CA         43.6352   52.7022   87.5123 C.3         1 DVA       0.1369
     36 C          42.5757   53.3238   88.3093 C.2         1 DVA       0.2055
     37 O          41.6092   53.8099   87.7333 O.2         1 DVA      -0.3942
     38 CB         44.3143   51.4487   88.1871 C.3         1 DVA       0.0145
     39 CG         45.6563   51.6310   88.7857 C.2         1 DVA      -0.0027
     40 ND1        46.2625   50.6677   89.5010 N.2         1 DVA      -0.3252
     41 CD2        46.5540   52.6974   88.6973 C.2         1 DVA       0.0291
     42 CE1        47.4898   51.1035   89.8329 C.2         1 DVA       0.0907
     43 NE2        47.6684   52.3332   89.3441 N.pl3       1 DVA      -0.2752
     44 N          42.6666   53.4030   89.6335 N.am        1 DVA      -0.2620
     45 CA         41.6771   53.8887   90.5610 C.3         1 DVA       0.1390
     46 C          41.5858   55.3571   90.5455 C.2         1 DVA       0.2058
     47 O          40.5399   55.9106   90.2160 O.2         1 DVA      -0.3942
     48 CB         40.3468   53.0627   90.3783 C.3         1 DVA       0.0163
     49 CG         39.7398   52.5251   91.6266 C.ar        1 DVA      -0.0493
     50 CD1        38.3503   52.6427   91.8899 C.ar        1 DVA      -0.0685
     51 CD2        40.5296   51.7756   92.5302 C.ar        1 DVA      -0.0685
     52 CE1        37.7753   52.0467   93.0294 C.ar        1 DVA      -0.0398
     53 CE2        39.9605   51.1871   93.6738 C.ar        1 DVA      -0.0398
     54 CZ         38.5789   51.3180   93.9243 C.ar        1 DVA       0.0805
     55 OH         38.0185   50.7271   95.0117 O.3         1 DVA      -0.3376
     56 N          42.6405   56.0643   90.9364 N.am        1 DVA      -0.2620
     57 CA         42.8424   57.4895   91.0238 C.3         1 DVA       0.1423
     58 C          41.9065   58.3560   90.3046 C.2         1 DVA       0.2051
     59 O          41.4611   59.3606   90.8594 O.2         1 DVA      -0.3943
     60 CB         43.1181   57.8627   92.5117 C.3         1 DVA       0.0406
     61 CG         41.9607   57.6972   93.4059 C.2         1 DVA       0.0393
     62 OD1        41.4064   58.7620   94.0325 O.co2       1 DVA      -0.5688
     63 OD2        41.5137   56.4639   93.7417 O.co2       1 DVA      -0.5688
     64 N          41.5639   58.0755   89.0562 N.am        1 DVA      -0.2671
     65 CA         40.6827   58.8106   88.1741 C.3         1 DVA       0.1173
     66 C          40.5974   58.1165   86.8679 C.2         1 DVA       0.0623
     67 O          41.2985   56.9831   86.6161 O.co2       1 DVA      -0.5665
     68 OXT        39.6954   58.5053   85.9392 O.co2       1 DVA      -0.5665
     69 CB         39.2685   59.0318   88.7423 C.3         1 DVA       0.0789
     70 OG         39.0840   58.2748   89.9358 O.3         1 DVA      -0.3910
     71 H1         50.5519   50.1511   76.2071 H           1 DVA       0.2015
     72 H2         50.1990   49.7435   77.7876 H           1 DVA       0.2015
     73 H3         51.5075   49.0706   77.0225 H           1 DVA       0.2015
     74 H4         51.1580   51.9094   77.5873 H           1 DVA       0.1101
     75 H5         53.5326   50.3968   76.4243 H           1 DVA       0.0376
     76 H6         53.3143   52.0182   74.5395 H           1 DVA       0.0236
     77 H7         51.8857   52.7279   75.3116 H           1 DVA       0.0236
     78 H8         51.8569   51.0535   74.7313 H           1 DVA       0.0236
     79 H9         54.4470   51.9974   78.0885 H           1 DVA       0.0236
     80 H10        53.4959   53.3133   77.3763 H           1 DVA       0.0236
     81 H11        54.8013   52.5484   76.4529 H           1 DVA       0.0236
     82 H12        51.6034   53.3464   79.3819 H           1 DVA       0.0802
     83 H13        50.7442   53.7911   81.9747 H           1 DVA       0.0313
     84 H14        52.4189   53.9475   81.4183 H           1 DVA       0.0313
     85 H15        51.1535   51.6430   82.8992 H           1 DVA       0.0287
     86 H16        52.7800   52.3403   83.1030 H           1 DVA       0.0287
     87 H17        53.6472   51.1094   81.2984 H           1 DVA       0.0524
     88 H18        52.2568   50.0395   81.6168 H           1 DVA       0.0524
     89 H19        49.6640   51.0479   81.3727 H           1 DVA       0.1881
     90 H20        47.5478   50.4517   80.0119 H           1 DVA       0.0763
     91 H21        47.1776   52.1537   80.3161 H           1 DVA       0.0763
     92 H22        46.0580   49.5468   81.4604 H           1 DVA       0.1884
     93 H23        46.6962   49.4490   84.1479 H           1 DVA       0.0823
     94 H24        44.8162   47.9309   84.3900 H           1 DVA       0.0606
     95 H25        45.7002   47.5639   82.9028 H           1 DVA       0.0606
     96 H26        44.1357   48.4927   81.7107 H           1 DVA       0.2097
     97 H27        43.7743   50.7237   82.5898 H           1 DVA       0.1883
     98 H28        42.0083   51.5529   83.9815 H           1 DVA       0.0801
     99 H29        42.2182   52.4243   81.8076 H           1 DVA       0.0337
    100 H30        43.6531   53.3472   82.1869 H           1 DVA       0.0337
    101 H31        41.3166   54.5389   81.8271 H           1 DVA       0.0504
    102 H32        42.5121   55.1555   82.9685 H           1 DVA       0.0504
    103 H33        39.1901   53.3579   84.4916 H           1 DVA       0.1814
    104 H34        39.7077   52.8383   82.9769 H           1 DVA       0.1814
    105 H35        42.7080   51.3605   86.2283 H           1 DVA       0.1885
    106 H36        44.3920   53.4761   87.3372 H           1 DVA       0.0817
    107 H37        44.4344   50.6486   87.4554 H           1 DVA       0.0420
    108 H38        43.6452   51.0450   88.9523 H           1 DVA       0.0420
    109 H39        46.4206   53.5841   88.2085 H           1 DVA       0.0729
    110 H40        48.1791   50.5759   90.3608 H           1 DVA       0.1199
    111 H41        48.4766   52.8691   89.4214 H           1 DVA       0.2361
    112 H42        43.4798   53.0635   90.0300 H           1 DVA       0.1885
    113 H43        42.0942   53.6448   91.5449 H           1 DVA       0.0821
    114 H44        40.5418   52.1828   89.7554 H           1 DVA       0.0453
    115 H45        39.6233   53.6608   89.8152 H           1 DVA       0.0453
    116 H46        37.7411   53.1422   91.2380 H           1 DVA       0.0530
    117 H47        41.5194   51.6338   92.3503 H           1 DVA       0.0530
    118 H48        36.7745   52.1357   93.2017 H           1 DVA       0.0525
    119 H49        40.5463   50.6425   94.3191 H           1 DVA       0.0525
    120 H50        38.3244   51.2618   95.7803 H           1 DVA       0.2458
    121 H51        43.3968   55.5350   91.2381 H           1 DVA       0.1884
    122 H52        43.7881   57.6449   90.5080 H           1 DVA       0.0819
    123 H53        43.4587   58.9028   92.5603 H           1 DVA       0.0478
    124 H54        43.9362   57.2501   92.9035 H           1 DVA       0.0478
    125 H55        41.9636   57.2660   88.6935 H           1 DVA       0.1876
    126 H56        41.1394   59.7802   87.9993 H           1 DVA       0.0749
    127 H57        38.5002   58.7505   88.0130 H           1 DVA       0.0599
    128 H58        39.1106   60.0865   88.9743 H           1 DVA       0.0599
    129 H59        38.7527   58.9508   90.5740 H           1 DVA       0.2096
@<TRIPOS>BOND
     1     1     2   1
     2     2     3   1
     3     2     6   1
     4     3     4   1
     5     3     5   1
     6     6     7   2
     7     6     8  am
     8     8     9   1
     9     8    12   1
    10     9    10   1
    11     9    13   1
    12    10    11   1
    13    11    12   1
    14    13    14   2
    15    13    15  am
    16    15    16   1
    17    16    17   1
    18    17    18   2
    19    17    19  am
    20    19    20   1
    21    20    21   1
    22    20    23   1
    23    21    22   2
    24    21    25  am
    25    23    24   1
    26    25    26   1
    27    26    27   1
    28    26    29   1
    29    27    28   2
    30    27    34  am
    31    29    30   1
    32    30    31   1
    33    31    32   2
    34    31    33  am
    35    34    35   1
    36    35    36   1
    37    35    38   1
    38    36    37   2
    39    36    44  am
    40    38    39   1
    41    39    40   1
    42    39    41   2
    43    40    42   2
    44    41    43   1
    45    42    43   1
    46    44    45   1
    47    45    46   1
    48    45    48   1
    49    46    47   2
    50    46    56  am
    51    48    49   1
    52    49    50  ar
    53    49    51  ar
    54    50    52  ar
    55    51    53  ar
    56    52    54  ar
    57    53    54  ar
    58    54    55   1
    59    56    57   1
    60    57    58   1
    61    57    60   1
    62    58    59   2
    63    58    64  am
    64    60    61   1
    65    61    62  ar
    66    61    63  ar
    67    64    65   1
    68    65    66   1
    69    65    69   1
    70    66    67  ar
    71    66    68  ar
    72    69    70   1
    73     1    71   1
    74     1    72   1
    75     1    73   1
    76     2    74   1
    77     3    75   1
    78     4    76   1
    79     4    77   1
    80     4    78   1
    81     5    79   1
    82     5    80   1
    83     5    81   1
    84     9    82   1
    85    10    83   1
    86    10    84   1
    87    11    85   1
    88    11    86   1
    89    12    87   1
    90    12    88   1
    91    15    89   1
    92    16    90   1
    93    16    91   1
    94    19    92   1
    95    20    93   1
    96    23    94   1
    97    23    95   1
    98    24    96   1
    99    25    97   1
   100    26    98   1
   101    29    99   1
   102    29   100   1
   103    30   101   1
   104    30   102   1
   105    33   103   1
   106    33   104   1
   107    34   105   1
   108    35   106   1
   109    38   107   1
   110    38   108   1
   111    41   109   1
   112    42   110   1
   113    43   111   1
   114    44   112   1
   115    45   113   1
   116    48   114   1
   117    48   115   1
   118    50   116   1
   119    51   117   1
   120    52   118   1
   121    53   119   1
   122    55   120   1
   123    56   121   1
   124    57   122   1
   125    60   123   1
   126    60   124   1
   127    64   125   1
   128    65   126   1
   129    69   127   1
   130    69   128   1
   131    70   129   1
@<TRIPOS>SUBSTRUCTURE
     1  DVA      2

