@<TRIPOS>MOLECULE
1zea_ligand_035
   129   131
SMALL
GAST_HUCK
****
This file was generated by PARSER (from files_GN.cpp)

@<TRIPOS>ATOM
      1 N          45.2851   62.7919   94.2020 N.4         1 DVA       0.2381
      2 CA         46.3878   62.7990   93.2209 C.3         1 DVA       0.0675
      3 CB         47.7249   63.3161   93.8664 C.3         1 DVA       0.0139
      4 CG1        48.2352   62.3821   94.9999 C.3         1 DVA      -0.0553
      5 CG2        48.8560   63.5134   92.8140 C.3         1 DVA      -0.0553
      6 C          45.9481   63.5971   92.0660 C.2         1 DVA       0.2295
      7 O          45.9617   64.8109   92.2377 O.2         1 DVA      -0.3905
      8 N          45.5710   63.1112   90.8639 N.am        1 DVA      -0.2471
      9 CA         45.3382   61.7175   90.5242 C.3         1 DVA       0.1339
     10 CB         44.9994   61.7415   89.0078 C.3         1 DVA      -0.0104
     11 CG         45.5989   63.0534   88.5032 C.3         1 DVA      -0.0281
     12 CD         45.4447   63.9787   89.7175 C.3         1 DVA       0.0371
     13 C          44.2855   61.0149   91.2534 C.2         1 DVA       0.2039
     14 O          43.8078   61.5215   92.2656 O.2         1 DVA      -0.3944
     15 N          43.8199   59.8626   90.7771 N.am        1 DVA      -0.2664
     16 CA         42.7014   59.1145   91.2796 C.3         1 DVA       0.1201
     17 C          41.9701   58.4659   90.1994 C.2         1 DVA       0.2008
     18 O          41.7436   57.2641   90.2861 O.2         1 DVA      -0.3947
     19 N          41.4624   59.2067   89.2225 N.am        1 DVA      -0.2618
     20 CA         40.5920   58.8364   88.1345 C.3         1 DVA       0.1539
     21 C          41.1884   57.8805   87.1917 C.2         1 DVA       0.2062
     22 O          41.3874   58.2435   86.0316 O.2         1 DVA      -0.3943
     23 CB         39.1545   58.4604   88.5895 C.3         1 DVA       0.0843
     24 OG         39.0958   57.3094   89.4181 O.3         1 DVA      -0.3903
     25 N          41.5523   56.6546   87.5672 N.am        1 DVA      -0.2635
     26 CA         42.3464   55.7174   86.8161 C.3         1 DVA       0.1330
     27 C          43.7359   55.9368   87.2031 C.2         1 DVA       0.2041
     28 O          44.2477   55.2276   88.0631 O.2         1 DVA      -0.3944
     29 CB         41.8753   54.2302   86.9576 C.3         1 DVA       0.0045
     30 CG         41.5742   53.7057   88.3989 C.3         1 DVA       0.0412
     31 CD         40.3203   54.1441   88.9899 C.2         1 DVA       0.1737
     32 OE1        39.4054   54.5802   88.3003 O.2         1 DVA      -0.3973
     33 NE2        40.0962   54.0255   90.2815 N.am        1 DVA      -0.3009
     34 N          44.4136   56.9358   86.6640 N.am        1 DVA      -0.2625
     35 CA         45.8265   57.1648   86.7863 C.3         1 DVA       0.1369
     36 C          46.5588   56.1098   86.0949 C.2         1 DVA       0.2055
     37 O          47.5176   55.5794   86.6499 O.2         1 DVA      -0.3942
     38 CB         46.2002   58.5966   86.3060 C.3         1 DVA       0.0145
     39 CG         46.1183   58.8537   84.8513 C.2         1 DVA      -0.0027
     40 ND1        45.0936   59.4496   84.2150 N.2         1 DVA      -0.3252
     41 CD2        47.1080   58.5943   83.9096 C.2         1 DVA       0.0291
     42 CE1        45.4332   59.5422   82.9165 C.2         1 DVA       0.0907
     43 NE2        46.6504   59.0095   82.7267 N.pl3       1 DVA      -0.2752
     44 N          46.1618   55.7101   84.8912 N.am        1 DVA      -0.2620
     45 CA         46.7066   54.6646   84.0702 C.3         1 DVA       0.1390
     46 C          46.3213   53.3442   84.5636 C.2         1 DVA       0.2058
     47 O          45.4800   52.6648   83.9762 O.2         1 DVA      -0.3942
     48 CB         46.3681   54.9397   82.5565 C.3         1 DVA       0.0163
     49 CG         45.0027   54.6544   81.9978 C.ar        1 DVA      -0.0493
     50 CD1        43.8213   54.6559   82.7865 C.ar        1 DVA      -0.0685
     51 CD2        44.8790   54.3485   80.6197 C.ar        1 DVA      -0.0685
     52 CE1        42.5811   54.2904   82.2391 C.ar        1 DVA      -0.0398
     53 CE2        43.6350   53.9843   80.0686 C.ar        1 DVA      -0.0398
     54 CZ         42.4849   53.9423   80.8837 C.ar        1 DVA       0.0805
     55 OH         41.2824   53.5688   80.3743 O.3         1 DVA      -0.3376
     56 N          46.8894   52.8361   85.6581 N.am        1 DVA      -0.2620
     57 CA         46.5923   51.5476   86.2303 C.3         1 DVA       0.1423
     58 C          46.9027   50.5064   85.2548 C.2         1 DVA       0.2051
     59 O          48.0690   50.1659   85.0716 O.2         1 DVA      -0.3943
     60 CB         47.3448   51.3699   87.5915 C.3         1 DVA       0.0406
     61 CG         46.8204   50.2454   88.4026 C.2         1 DVA       0.0393
     62 OD1        46.5543   49.0438   87.8340 O.co2       1 DVA      -0.5688
     63 OD2        46.6801   50.3748   89.7487 O.co2       1 DVA      -0.5688
     64 N          45.9448   50.1102   84.4232 N.am        1 DVA      -0.2671
     65 CA         46.0982   49.3947   83.1931 C.3         1 DVA       0.1173
     66 C          44.7606   48.9159   82.7812 C.2         1 DVA       0.0623
     67 O          43.8395   49.7885   82.3155 O.co2       1 DVA      -0.5665
     68 OXT        44.4047   47.6189   82.8933 O.co2       1 DVA      -0.5665
     69 CB         46.7056   50.2885   82.0659 C.3         1 DVA       0.0789
     70 OG         47.6755   51.2193   82.5431 O.3         1 DVA      -0.3910
     71 H1         45.5028   62.1425   94.9613 H           1 DVA       0.2015
     72 H2         44.4187   62.4901   93.7464 H           1 DVA       0.2015
     73 H3         45.1560   63.7323   94.5862 H           1 DVA       0.2015
     74 H4         46.5464   61.7600   92.9297 H           1 DVA       0.1101
     75 H5         47.5347   64.2930   94.3200 H           1 DVA       0.0376
     76 H6         48.4338   61.3808   94.6141 H           1 DVA       0.0236
     77 H7         47.5000   62.3081   95.8010 H           1 DVA       0.0236
     78 H8         49.1542   62.7755   95.4356 H           1 DVA       0.0236
     79 H9         49.0781   62.5710   92.3035 H           1 DVA       0.0236
     80 H10        49.7716   63.8725   93.2941 H           1 DVA       0.0236
     81 H11        48.5676   64.2539   92.0637 H           1 DVA       0.0236
     82 H12        46.2814   61.1779   90.6597 H           1 DVA       0.0802
     83 H13        43.9178   61.7663   88.8307 H           1 DVA       0.0313
     84 H14        45.4284   60.8851   88.4874 H           1 DVA       0.0313
     85 H15        45.0743   63.4395   87.6247 H           1 DVA       0.0287
     86 H16        46.6603   62.9182   88.2635 H           1 DVA       0.0287
     87 H17        46.2208   64.7488   89.6801 H           1 DVA       0.0524
     88 H18        44.4590   64.4548   89.7243 H           1 DVA       0.0524
     89 H19        44.2571   59.5010   89.9898 H           1 DVA       0.1881
     90 H20        41.9930   59.7400   91.8323 H           1 DVA       0.0763
     91 H21        43.0911   58.3662   91.9842 H           1 DVA       0.0763
     92 H22        41.6667   60.1540   89.2755 H           1 DVA       0.1884
     93 H23        40.4650   59.7808   87.5927 H           1 DVA       0.0823
     94 H24        38.5254   58.2917   87.7107 H           1 DVA       0.0606
     95 H25        38.7311   59.3025   89.1477 H           1 DVA       0.0606
     96 H26        39.1740   56.5560   88.7966 H           1 DVA       0.2097
     97 H27        41.3860   56.4267   88.4938 H           1 DVA       0.1883
     98 H28        42.2626   55.9327   85.7430 H           1 DVA       0.0801
     99 H29        42.6522   53.5854   86.5256 H           1 DVA       0.0337
    100 H30        40.9898   54.0745   86.3347 H           1 DVA       0.0337
    101 H31        42.3989   53.9964   89.0543 H           1 DVA       0.0504
    102 H32        41.5558   52.6115   88.3769 H           1 DVA       0.0504
    103 H33        39.2632   54.3528   90.6593 H           1 DVA       0.1814
    104 H34        40.7859   53.6600   90.8604 H           1 DVA       0.1814
    105 H35        43.9324   57.5242   86.0561 H           1 DVA       0.1885
    106 H36        46.0801   57.1429   87.8497 H           1 DVA       0.0817
    107 H37        47.2140   58.8352   86.6435 H           1 DVA       0.0420
    108 H38        45.5330   59.3078   86.8017 H           1 DVA       0.0420
    109 H39        48.0143   58.1576   84.0822 H           1 DVA       0.0729
    110 H40        44.8477   59.9466   82.1840 H           1 DVA       0.1199
    111 H41        47.1233   58.9607   81.8821 H           1 DVA       0.2361
    112 H42        45.4163   56.2033   84.5065 H           1 DVA       0.1885
    113 H43        47.7966   54.7353   84.1344 H           1 DVA       0.0821
    114 H44        47.0887   54.3461   81.9871 H           1 DVA       0.0453
    115 H45        46.5984   55.9882   82.3383 H           1 DVA       0.0453
    116 H46        43.8577   54.9040   83.7819 H           1 DVA       0.0530
    117 H47        45.6933   54.3401   80.0150 H           1 DVA       0.0530
    118 H48        41.7490   54.2924   82.8257 H           1 DVA       0.0525
    119 H49        43.5708   53.7424   79.0783 H           1 DVA       0.0525
    120 H50        41.1612   54.0840   79.5459 H           1 DVA       0.2458
    121 H51        47.5380   53.3809   86.1391 H           1 DVA       0.1884
    122 H52        45.5208   51.5319   86.4781 H           1 DVA       0.0819
    123 H53        47.2464   52.2929   88.1754 H           1 DVA       0.0478
    124 H54        48.4165   51.2006   87.4188 H           1 DVA       0.0478
    125 H55        45.0433   50.4046   84.6368 H           1 DVA       0.1876
    126 H56        46.7554   48.5307   83.3376 H           1 DVA       0.0749
    127 H57        45.9229   50.8692   81.5692 H           1 DVA       0.0599
    128 H58        47.1915   49.6571   81.3121 H           1 DVA       0.0599
    129 H59        48.5039   50.7114   82.6531 H           1 DVA       0.2096
@<TRIPOS>BOND
     1     1     2   1
     2     2     3   1
     3     2     6   1
     4     3     4   1
     5     3     5   1
     6     6     7   2
     7     6     8  am
     8     8     9   1
     9     8    12   1
    10     9    10   1
    11     9    13   1
    12    10    11   1
    13    11    12   1
    14    13    14   2
    15    13    15  am
    16    15    16   1
    17    16    17   1
    18    17    18   2
    19    17    19  am
    20    19    20   1
    21    20    21   1
    22    20    23   1
    23    21    22   2
    24    21    25  am
    25    23    24   1
    26    25    26   1
    27    26    27   1
    28    26    29   1
    29    27    28   2
    30    27    34  am
    31    29    30   1
    32    30    31   1
    33    31    32   2
    34    31    33  am
    35    34    35   1
    36    35    36   1
    37    35    38   1
    38    36    37   2
    39    36    44  am
    40    38    39   1
    41    39    40   1
    42    39    41   2
    43    40    42   2
    44    41    43   1
    45    42    43   1
    46    44    45   1
    47    45    46   1
    48    45    48   1
    49    46    47   2
    50    46    56  am
    51    48    49   1
    52    49    50  ar
    53    49    51  ar
    54    50    52  ar
    55    51    53  ar
    56    52    54  ar
    57    53    54  ar
    58    54    55   1
    59    56    57   1
    60    57    58   1
    61    57    60   1
    62    58    59   2
    63    58    64  am
    64    60    61   1
    65    61    62  ar
    66    61    63  ar
    67    64    65   1
    68    65    66   1
    69    65    69   1
    70    66    67  ar
    71    66    68  ar
    72    69    70   1
    73     1    71   1
    74     1    72   1
    75     1    73   1
    76     2    74   1
    77     3    75   1
    78     4    76   1
    79     4    77   1
    80     4    78   1
    81     5    79   1
    82     5    80   1
    83     5    81   1
    84     9    82   1
    85    10    83   1
    86    10    84   1
    87    11    85   1
    88    11    86   1
    89    12    87   1
    90    12    88   1
    91    15    89   1
    92    16    90   1
    93    16    91   1
    94    19    92   1
    95    20    93   1
    96    23    94   1
    97    23    95   1
    98    24    96   1
    99    25    97   1
   100    26    98   1
   101    29    99   1
   102    29   100   1
   103    30   101   1
   104    30   102   1
   105    33   103   1
   106    33   104   1
   107    34   105   1
   108    35   106   1
   109    38   107   1
   110    38   108   1
   111    41   109   1
   112    42   110   1
   113    43   111   1
   114    44   112   1
   115    45   113   1
   116    48   114   1
   117    48   115   1
   118    50   116   1
   119    51   117   1
   120    52   118   1
   121    53   119   1
   122    55   120   1
   123    56   121   1
   124    57   122   1
   125    60   123   1
   126    60   124   1
   127    64   125   1
   128    65   126   1
   129    69   127   1
   130    69   128   1
   131    70   129   1
@<TRIPOS>SUBSTRUCTURE
     1  DVA      2

