@<TRIPOS>MOLECULE
1zea_ligand_062
   129   131
SMALL
GAST_HUCK
****
This file was generated by PARSER (from files_GN.cpp)

@<TRIPOS>ATOM
      1 N          53.8161   51.0310   78.6369 N.4         1 DVA       0.2381
      2 CA         53.6550   50.3653   77.3286 C.3         1 DVA       0.0675
      3 CB         54.2099   48.8926   77.3280 C.3         1 DVA       0.0139
      4 CG1        55.7540   48.7705   77.1664 C.3         1 DVA      -0.0553
      5 CG2        53.7549   48.0947   78.5873 C.3         1 DVA      -0.0553
      6 C          54.2219   51.2147   76.2684 C.2         1 DVA       0.2295
      7 O          55.4169   51.4693   76.3836 O.2         1 DVA      -0.3905
      8 N          53.5561   51.7550   75.2271 N.am        1 DVA      -0.2471
      9 CA         52.1549   51.5744   74.9207 C.3         1 DVA       0.1339
     10 CB         51.9959   52.0863   73.4642 C.3         1 DVA      -0.0104
     11 CG         53.1239   53.1084   73.2983 C.3         1 DVA      -0.0281
     12 CD         54.2116   52.5810   74.2456 C.3         1 DVA       0.0371
     13 C          51.2691   52.2804   75.8487 C.2         1 DVA       0.2039
     14 O          50.2660   51.7055   76.2557 O.2         1 DVA      -0.3944
     15 N          51.5250   53.5404   76.1885 N.am        1 DVA      -0.2664
     16 CA         50.7697   54.3631   77.0857 C.3         1 DVA       0.1201
     17 C          51.0142   54.0458   78.4891 C.2         1 DVA       0.2008
     18 O          51.4661   54.9170   79.2241 O.2         1 DVA      -0.3947
     19 N          50.6929   52.8428   78.9595 N.am        1 DVA      -0.2618
     20 CA         50.7370   52.4170   80.3354 C.3         1 DVA       0.1539
     21 C          49.5845   52.9820   81.0398 C.2         1 DVA       0.2062
     22 O          49.7846   53.8826   81.8459 O.2         1 DVA      -0.3943
     23 CB         50.7771   50.8658   80.4336 C.3         1 DVA       0.0843
     24 OG         51.2073   50.2591   79.2071 O.3         1 DVA      -0.3903
     25 N          48.3580   52.5695   80.7188 N.am        1 DVA      -0.2635
     26 CA         47.0778   53.0152   81.2051 C.3         1 DVA       0.1330
     27 C          47.0144   53.2256   82.6531 C.2         1 DVA       0.2041
     28 O          46.8957   54.3642   83.0899 O.2         1 DVA      -0.3944
     29 CB         46.5070   54.1740   80.3092 C.3         1 DVA       0.0045
     30 CG         47.5442   54.9551   79.4408 C.3         1 DVA       0.0412
     31 CD         46.9782   55.9793   78.5691 C.2         1 DVA       0.1737
     32 OE1        45.8268   56.3858   78.6816 O.2         1 DVA      -0.3973
     33 NE2        47.7262   56.5226   77.6326 N.am        1 DVA      -0.3009
     34 N          47.0918   52.1679   83.4566 N.am        1 DVA      -0.2625
     35 CA         47.0970   52.1962   84.8953 C.3         1 DVA       0.1369
     36 C          45.9434   52.9419   85.3956 C.2         1 DVA       0.2055
     37 O          46.1599   53.8702   86.1623 O.2         1 DVA      -0.3942
     38 CB         47.2699   50.7681   85.4932 C.3         1 DVA       0.0145
     39 CG         46.2245   49.7770   85.1706 C.2         1 DVA      -0.0027
     40 ND1        45.8128   49.4598   83.9276 N.2         1 DVA      -0.3252
     41 CD2        45.5419   48.9460   86.0597 C.2         1 DVA       0.0291
     42 CE1        44.9036   48.4738   84.0449 C.2         1 DVA       0.0907
     43 NE2        44.7463   48.1531   85.3376 N.pl3       1 DVA      -0.2752
     44 N          44.6969   52.6886   84.9961 N.am        1 DVA      -0.2620
     45 CA         43.4970   53.4121   85.3537 C.3         1 DVA       0.1390
     46 C          43.4604   53.6551   86.7939 C.2         1 DVA       0.2058
     47 O          43.7352   54.7622   87.2430 O.2         1 DVA      -0.3942
     48 CB         43.2829   54.6889   84.4658 C.3         1 DVA       0.0163
     49 CG         42.6008   54.4010   83.1755 C.ar        1 DVA      -0.0493
     50 CD1        41.1866   54.4348   83.0737 C.ar        1 DVA      -0.0685
     51 CD2        43.3469   54.0867   82.0137 C.ar        1 DVA      -0.0685
     52 CE1        40.5399   54.1713   81.8515 C.ar        1 DVA      -0.0398
     53 CE2        42.6984   53.8432   80.7858 C.ar        1 DVA      -0.0398
     54 CZ         41.2936   53.8900   80.6948 C.ar        1 DVA       0.0805
     55 OH         40.6931   53.6509   79.4978 O.3         1 DVA      -0.3376
     56 N          43.2239   52.6347   87.6094 N.am        1 DVA      -0.2620
     57 CA         43.3147   52.6492   89.0450 C.3         1 DVA       0.1423
     58 C          41.9592   52.6511   89.5815 C.2         1 DVA       0.2051
     59 O          41.2745   51.6366   89.5048 O.2         1 DVA      -0.3943
     60 CB         44.1705   51.4437   89.5319 C.3         1 DVA       0.0406
     61 CG         45.6346   51.6106   89.4278 C.2         1 DVA       0.0393
     62 OD1        46.4420   50.5714   89.7255 O.co2       1 DVA      -0.5688
     63 OD2        46.2176   52.8101   89.1878 O.co2       1 DVA      -0.5688
     64 N          41.4434   53.7880   90.0362 N.am        1 DVA      -0.2671
     65 CA         40.1370   54.0158   90.5875 C.3         1 DVA       0.1173
     66 C          39.0475   53.5947   89.6768 C.2         1 DVA       0.0623
     67 O          38.1887   52.6012   89.9905 O.co2       1 DVA      -0.5665
     68 OXT        38.8744   54.2316   88.4964 O.co2       1 DVA      -0.5665
     69 CB         40.0328   53.4883   92.0485 C.3         1 DVA       0.0789
     70 OG         40.4457   52.1324   92.1998 O.3         1 DVA      -0.3910
     71 H1         53.3114   50.5044   79.3509 H           1 DVA       0.2015
     72 H2         53.4245   51.9755   78.5853 H           1 DVA       0.2015
     73 H3         54.8079   51.0867   78.8879 H           1 DVA       0.2015
     74 H4         52.5739   50.2935   77.2014 H           1 DVA       0.1101
     75 H5         53.7530   48.3826   76.4707 H           1 DVA       0.0376
     76 H6         56.0695   47.7285   77.2678 H           1 DVA       0.0236
     77 H7         56.2765   49.3695   77.9165 H           1 DVA       0.0236
     78 H8         56.0545   49.1017   76.1710 H           1 DVA       0.0236
     79 H9         52.6668   48.1241   78.6855 H           1 DVA       0.0236
     80 H10        54.2024   48.5051   79.4971 H           1 DVA       0.0236
     81 H11        54.0530   47.0443   78.4987 H           1 DVA       0.0236
     82 H12        51.9137   50.5057   74.9227 H           1 DVA       0.0802
     83 H13        51.0177   52.5354   73.2638 H           1 DVA       0.0313
     84 H14        52.1504   51.2603   72.7595 H           1 DVA       0.0313
     85 H15        52.7841   54.0956   73.6153 H           1 DVA       0.0287
     86 H16        53.4781   53.1601   72.2668 H           1 DVA       0.0287
     87 H17        54.9396   51.9819   73.6892 H           1 DVA       0.0524
     88 H18        54.7259   53.4220   74.7181 H           1 DVA       0.0524
     89 H19        52.3045   53.9553   75.7813 H           1 DVA       0.1881
     90 H20        49.6982   54.2840   76.8719 H           1 DVA       0.0763
     91 H21        51.0656   55.3988   76.8834 H           1 DVA       0.0763
     92 H22        50.3622   52.1979   78.3096 H           1 DVA       0.1884
     93 H23        51.6781   52.7801   80.7570 H           1 DVA       0.0823
     94 H24        49.7893   50.4549   80.7021 H           1 DVA       0.0606
     95 H25        51.4902   50.5754   81.2065 H           1 DVA       0.0606
     96 H26        50.7030   49.4019   79.2048 H           1 DVA       0.2097
     97 H27        48.3205   51.8864   80.0267 H           1 DVA       0.1883
     98 H28        46.4064   52.1719   80.9979 H           1 DVA       0.0801
     99 H29        45.9645   54.8792   80.9606 H           1 DVA       0.0337
    100 H30        45.7548   53.7399   79.6240 H           1 DVA       0.0337
    101 H31        48.0730   54.2346   78.8057 H           1 DVA       0.0504
    102 H32        48.2644   55.4389   80.0990 H           1 DVA       0.0504
    103 H33        47.3500   57.2091   77.0543 H           1 DVA       0.1814
    104 H34        48.6513   56.2325   77.5156 H           1 DVA       0.1814
    105 H35        47.2219   51.3047   83.0198 H           1 DVA       0.1885
    106 H36        48.0133   52.7304   85.1694 H           1 DVA       0.0817
    107 H37        47.3625   50.8680   86.5746 H           1 DVA       0.0420
    108 H38        48.2178   50.3626   85.1280 H           1 DVA       0.0420
    109 H39        45.6516   48.9268   87.0782 H           1 DVA       0.0729
    110 H40        44.4269   48.0176   83.2727 H           1 DVA       0.1199
    111 H41        44.1582   47.4732   85.6952 H           1 DVA       0.2361
    112 H42        44.5765   51.9423   84.3900 H           1 DVA       0.1885
    113 H43        42.6553   52.7397   85.1464 H           1 DVA       0.0821
    114 H44        44.2382   55.1810   84.2662 H           1 DVA       0.0453
    115 H45        42.6784   55.4162   85.0122 H           1 DVA       0.0453
    116 H46        40.6153   54.6512   83.8926 H           1 DVA       0.0530
    117 H47        44.3705   54.0440   82.0454 H           1 DVA       0.0530
    118 H48        39.5188   54.2009   81.8041 H           1 DVA       0.0525
    119 H49        43.2555   53.6379   79.9535 H           1 DVA       0.0525
    120 H50        39.7484   53.4746   79.6926 H           1 DVA       0.2458
    121 H51        42.9674   51.7868   87.2017 H           1 DVA       0.1884
    122 H52        43.8328   53.5500   89.3958 H           1 DVA       0.0819
    123 H53        43.8956   50.5630   88.9466 H           1 DVA       0.0478
    124 H54        43.9365   51.2381   90.5814 H           1 DVA       0.0478
    125 H55        42.0235   54.5676   89.9871 H           1 DVA       0.1876
    126 H56        40.0494   55.1017   90.6665 H           1 DVA       0.0749
    127 H57        39.0016   53.5793   92.4021 H           1 DVA       0.0599
    128 H58        40.6607   54.1049   92.6988 H           1 DVA       0.0599
    129 H59        39.8226   51.6095   91.6580 H           1 DVA       0.2096
@<TRIPOS>BOND
     1     1     2   1
     2     2     3   1
     3     2     6   1
     4     3     4   1
     5     3     5   1
     6     6     7   2
     7     6     8  am
     8     8     9   1
     9     8    12   1
    10     9    10   1
    11     9    13   1
    12    10    11   1
    13    11    12   1
    14    13    14   2
    15    13    15  am
    16    15    16   1
    17    16    17   1
    18    17    18   2
    19    17    19  am
    20    19    20   1
    21    20    21   1
    22    20    23   1
    23    21    22   2
    24    21    25  am
    25    23    24   1
    26    25    26   1
    27    26    27   1
    28    26    29   1
    29    27    28   2
    30    27    34  am
    31    29    30   1
    32    30    31   1
    33    31    32   2
    34    31    33  am
    35    34    35   1
    36    35    36   1
    37    35    38   1
    38    36    37   2
    39    36    44  am
    40    38    39   1
    41    39    40   1
    42    39    41   2
    43    40    42   2
    44    41    43   1
    45    42    43   1
    46    44    45   1
    47    45    46   1
    48    45    48   1
    49    46    47   2
    50    46    56  am
    51    48    49   1
    52    49    50  ar
    53    49    51  ar
    54    50    52  ar
    55    51    53  ar
    56    52    54  ar
    57    53    54  ar
    58    54    55   1
    59    56    57   1
    60    57    58   1
    61    57    60   1
    62    58    59   2
    63    58    64  am
    64    60    61   1
    65    61    62  ar
    66    61    63  ar
    67    64    65   1
    68    65    66   1
    69    65    69   1
    70    66    67  ar
    71    66    68  ar
    72    69    70   1
    73     1    71   1
    74     1    72   1
    75     1    73   1
    76     2    74   1
    77     3    75   1
    78     4    76   1
    79     4    77   1
    80     4    78   1
    81     5    79   1
    82     5    80   1
    83     5    81   1
    84     9    82   1
    85    10    83   1
    86    10    84   1
    87    11    85   1
    88    11    86   1
    89    12    87   1
    90    12    88   1
    91    15    89   1
    92    16    90   1
    93    16    91   1
    94    19    92   1
    95    20    93   1
    96    23    94   1
    97    23    95   1
    98    24    96   1
    99    25    97   1
   100    26    98   1
   101    29    99   1
   102    29   100   1
   103    30   101   1
   104    30   102   1
   105    33   103   1
   106    33   104   1
   107    34   105   1
   108    35   106   1
   109    38   107   1
   110    38   108   1
   111    41   109   1
   112    42   110   1
   113    43   111   1
   114    44   112   1
   115    45   113   1
   116    48   114   1
   117    48   115   1
   118    50   116   1
   119    51   117   1
   120    52   118   1
   121    53   119   1
   122    55   120   1
   123    56   121   1
   124    57   122   1
   125    60   123   1
   126    60   124   1
   127    64   125   1
   128    65   126   1
   129    69   127   1
   130    69   128   1
   131    70   129   1
@<TRIPOS>SUBSTRUCTURE
     1  DVA      2

