@<TRIPOS>MOLECULE
1zea_ligand_065
   129   131
SMALL
GAST_HUCK
****
This file was generated by PARSER (from files_GN.cpp)

@<TRIPOS>ATOM
      1 N          40.7411   56.0962   95.3060 N.4         1 DVA       0.2381
      2 CA         40.7517   57.4244   95.9519 C.3         1 DVA       0.0675
      3 CB         40.9165   57.2881   97.5040 C.3         1 DVA       0.0139
      4 CG1        41.3282   58.6383   98.1555 C.3         1 DVA      -0.0553
      5 CG2        39.6968   56.6790   98.2550 C.3         1 DVA      -0.0553
      6 C          39.5847   58.2001   95.5121 C.2         1 DVA       0.2295
      7 O          38.4977   57.7411   95.8353 O.2         1 DVA      -0.3905
      8 N          39.6137   59.3410   94.7876 N.am        1 DVA      -0.2471
      9 CA         40.7909   59.9803   94.2341 C.3         1 DVA       0.1339
     10 CB         40.2737   61.2956   93.5878 C.3         1 DVA      -0.0104
     11 CG         38.9176   61.5429   94.2511 C.3         1 DVA      -0.0281
     12 CD         38.4242   60.1191   94.5464 C.3         1 DVA       0.0371
     13 C          41.5443   59.2050   93.2496 C.2         1 DVA       0.2039
     14 O          41.3083   58.0087   93.1089 O.2         1 DVA      -0.3944
     15 N          42.4576   59.8126   92.4992 N.am        1 DVA      -0.2664
     16 CA         43.2244   59.2251   91.4427 C.3         1 DVA       0.1201
     17 C          42.6845   59.5198   90.1234 C.2         1 DVA       0.2008
     18 O          43.3471   60.1844   89.3383 O.2         1 DVA      -0.3947
     19 N          41.5187   58.9891   89.7587 N.am        1 DVA      -0.2618
     20 CA         40.9297   59.0342   88.4514 C.3         1 DVA       0.1539
     21 C          41.5963   58.1748   87.4739 C.2         1 DVA       0.2062
     22 O          41.1741   58.1820   86.3255 O.2         1 DVA      -0.3943
     23 CB         39.4146   58.7224   88.5721 C.3         1 DVA       0.0843
     24 OG         39.1607   57.5737   89.3836 O.3         1 DVA      -0.3903
     25 N          42.6851   57.4776   87.7998 N.am        1 DVA      -0.2635
     26 CA         43.5452   56.7301   86.9299 C.3         1 DVA       0.1330
     27 C          44.8316   57.4244   86.9050 C.2         1 DVA       0.2041
     28 O          45.4820   57.4645   87.9461 O.2         1 DVA      -0.3944
     29 CB         43.7154   55.2346   87.3810 C.3         1 DVA       0.0045
     30 CG         42.5543   54.6160   88.2104 C.3         1 DVA       0.0412
     31 CD         41.2904   54.4997   87.5102 C.2         1 DVA       0.1737
     32 OE1        40.2737   54.9871   87.9765 O.2         1 DVA      -0.3973
     33 NE2        41.1604   53.7441   86.4416 N.am        1 DVA      -0.3009
     34 N          45.3149   57.9398   85.7821 N.am        1 DVA      -0.2625
     35 CA         46.6513   58.4453   85.5596 C.3         1 DVA       0.1369
     36 C          47.4883   57.4599   84.8632 C.2         1 DVA       0.2055
     37 O          48.7078   57.5700   84.9859 O.2         1 DVA      -0.3942
     38 CB         46.6204   59.8510   84.8848 C.3         1 DVA       0.0145
     39 CG         45.7775   59.9741   83.6733 C.2         1 DVA      -0.0027
     40 ND1        44.4407   60.1342   83.6886 N.2         1 DVA      -0.3252
     41 CD2        46.2038   60.0540   82.3477 C.2         1 DVA       0.0291
     42 CE1        44.0493   60.2899   82.4080 C.2         1 DVA       0.0907
     43 NE2        45.1152   60.2402   81.5928 N.pl3       1 DVA      -0.2752
     44 N          46.9588   56.3890   84.2777 N.am        1 DVA      -0.2620
     45 CA         47.6077   55.1356   83.9949 C.3         1 DVA       0.1390
     46 C          46.7252   54.0891   84.5205 C.2         1 DVA       0.2058
     47 O          45.6256   53.9615   83.9933 O.2         1 DVA      -0.3942
     48 CB         47.9862   54.9130   82.4856 C.3         1 DVA       0.0163
     49 CG         47.7881   56.0793   81.5792 C.ar        1 DVA      -0.0493
     50 CD1        46.4880   56.5994   81.3768 C.ar        1 DVA      -0.0685
     51 CD2        48.8736   56.6858   80.8998 C.ar        1 DVA      -0.0685
     52 CE1        46.2761   57.6871   80.5099 C.ar        1 DVA      -0.0398
     53 CE2        48.6593   57.7750   80.0314 C.ar        1 DVA      -0.0398
     54 CZ         47.3587   58.2725   79.8200 C.ar        1 DVA       0.0805
     55 OH         47.1737   59.3243   78.9783 O.3         1 DVA      -0.3376
     56 N          47.0819   53.3517   85.5685 N.am        1 DVA      -0.2620
     57 CA         46.2883   52.3421   86.2160 C.3         1 DVA       0.1423
     58 C          46.6022   51.0508   85.6098 C.2         1 DVA       0.2051
     59 O          47.7340   50.6018   85.7226 O.2         1 DVA      -0.3943
     60 CB         46.5408   52.4057   87.7512 C.3         1 DVA       0.0406
     61 CG         45.8237   51.3573   88.5032 C.2         1 DVA       0.0393
     62 OD1        44.4726   51.3023   88.4912 O.co2       1 DVA      -0.5688
     63 OD2        46.5011   50.4409   89.2293 O.co2       1 DVA      -0.5688
     64 N          45.6626   50.4163   84.9053 N.am        1 DVA      -0.2671
     65 CA         45.7746   49.1296   84.2789 C.3         1 DVA       0.1173
     66 C          44.4891   48.8154   83.6118 C.2         1 DVA       0.0623
     67 O          43.8029   49.7624   82.9288 O.co2       1 DVA      -0.5665
     68 OXT        44.0234   47.5459   83.5885 O.co2       1 DVA      -0.5665
     69 CB         46.9439   49.0400   83.2602 C.3         1 DVA       0.0789
     70 OG         47.1512   50.2569   82.5435 O.3         1 DVA      -0.3910
     71 H1         41.5711   55.5648   95.5873 H           1 DVA       0.2015
     72 H2         40.7495   56.2089   94.2879 H           1 DVA       0.2015
     73 H3         39.9005   55.5779   95.5816 H           1 DVA       0.2015
     74 H4         41.6715   57.8800   95.5964 H           1 DVA       0.1101
     75 H5         41.7525   56.5998   97.6763 H           1 DVA       0.0376
     76 H6         40.5419   59.3843   98.0293 H           1 DVA       0.0236
     77 H7         42.2446   59.0190   97.7007 H           1 DVA       0.0236
     78 H8         41.5155   58.5080   99.2228 H           1 DVA       0.0236
     79 H9         38.8602   57.3830   98.2733 H           1 DVA       0.0236
     80 H10        39.9722   56.4413   99.2839 H           1 DVA       0.0236
     81 H11        39.3669   55.7567   97.7734 H           1 DVA       0.0236
     82 H12        41.4557   60.2377   95.0662 H           1 DVA       0.0802
     83 H13        40.1126   61.1835   92.5085 H           1 DVA       0.0313
     84 H14        40.9595   62.1272   93.7613 H           1 DVA       0.0313
     85 H15        38.2290   62.0853   93.5969 H           1 DVA       0.0287
     86 H16        39.0487   62.1000   95.1847 H           1 DVA       0.0287
     87 H17        37.7453   60.1471   95.4069 H           1 DVA       0.0524
     88 H18        37.8906   59.7130   93.6799 H           1 DVA       0.0524
     89 H19        42.6187   60.7542   92.6830 H           1 DVA       0.1881
     90 H20        43.2922   58.1411   91.5762 H           1 DVA       0.0763
     91 H21        44.2416   59.6190   91.5269 H           1 DVA       0.0763
     92 H22        41.0405   58.4785   90.4276 H           1 DVA       0.1884
     93 H23        41.0104   60.0669   88.0926 H           1 DVA       0.0823
     94 H24        38.9738   58.5623   87.5835 H           1 DVA       0.0606
     95 H25        38.9144   59.5819   89.0306 H           1 DVA       0.0606
     96 H26        39.1586   56.8221   88.7549 H           1 DVA       0.2097
     97 H27        42.9633   57.5103   88.7247 H           1 DVA       0.1883
     98 H28        43.1273   56.7085   85.9121 H           1 DVA       0.0801
     99 H29        44.6160   55.1251   87.9987 H           1 DVA       0.0337
    100 H30        43.8758   54.6229   86.4828 H           1 DVA       0.0337
    101 H31        42.4268   55.2118   89.1194 H           1 DVA       0.0504
    102 H32        42.8506   53.6151   88.5208 H           1 DVA       0.0504
    103 H33        40.2727   53.5469   86.1008 H           1 DVA       0.1814
    104 H34        41.9305   53.2910   86.0611 H           1 DVA       0.1814
    105 H35        44.7513   57.8741   85.0017 H           1 DVA       0.1885
    106 H36        47.1389   58.6035   86.5308 H           1 DVA       0.0817
    107 H37        47.6478   60.1507   84.6422 H           1 DVA       0.0420
    108 H38        46.2516   60.5836   85.6142 H           1 DVA       0.0420
    109 H39        47.1671   60.0065   82.0158 H           1 DVA       0.0729
    110 H40        43.0808   60.4380   82.1019 H           1 DVA       0.1199
    111 H41        45.0990   60.3380   80.6304 H           1 DVA       0.2361
    112 H42        45.9915   56.3840   84.1828 H           1 DVA       0.1885
    113 H43        48.5472   55.0983   84.5598 H           1 DVA       0.0821
    114 H44        47.4248   54.0776   82.0597 H           1 DVA       0.0453
    115 H45        49.0342   54.5951   82.4382 H           1 DVA       0.0453
    116 H46        45.6840   56.1801   81.8512 H           1 DVA       0.0530
    117 H47        49.8260   56.3404   81.0340 H           1 DVA       0.0530
    118 H48        45.3329   58.0539   80.3766 H           1 DVA       0.0525
    119 H49        49.4528   58.1972   79.5453 H           1 DVA       0.0525
    120 H50        46.2095   59.3671   78.7969 H           1 DVA       0.2458
    121 H51        47.9811   53.4943   85.9059 H           1 DVA       0.1884
    122 H52        45.2242   52.5727   86.0654 H           1 DVA       0.0819
    123 H53        46.2087   53.3773   88.1273 H           1 DVA       0.0478
    124 H54        47.6159   52.3213   87.9485 H           1 DVA       0.0478
    125 H55        44.7939   50.8543   84.8523 H           1 DVA       0.1876
    126 H56        45.9472   48.3830   85.0616 H           1 DVA       0.0749
    127 H57        46.7565   48.2453   82.5357 H           1 DVA       0.0599
    128 H58        47.8689   48.7885   83.7791 H           1 DVA       0.0599
    129 H59        47.6368   50.8421   83.1612 H           1 DVA       0.2096
@<TRIPOS>BOND
     1     1     2   1
     2     2     3   1
     3     2     6   1
     4     3     4   1
     5     3     5   1
     6     6     7   2
     7     6     8  am
     8     8     9   1
     9     8    12   1
    10     9    10   1
    11     9    13   1
    12    10    11   1
    13    11    12   1
    14    13    14   2
    15    13    15  am
    16    15    16   1
    17    16    17   1
    18    17    18   2
    19    17    19  am
    20    19    20   1
    21    20    21   1
    22    20    23   1
    23    21    22   2
    24    21    25  am
    25    23    24   1
    26    25    26   1
    27    26    27   1
    28    26    29   1
    29    27    28   2
    30    27    34  am
    31    29    30   1
    32    30    31   1
    33    31    32   2
    34    31    33  am
    35    34    35   1
    36    35    36   1
    37    35    38   1
    38    36    37   2
    39    36    44  am
    40    38    39   1
    41    39    40   1
    42    39    41   2
    43    40    42   2
    44    41    43   1
    45    42    43   1
    46    44    45   1
    47    45    46   1
    48    45    48   1
    49    46    47   2
    50    46    56  am
    51    48    49   1
    52    49    50  ar
    53    49    51  ar
    54    50    52  ar
    55    51    53  ar
    56    52    54  ar
    57    53    54  ar
    58    54    55   1
    59    56    57   1
    60    57    58   1
    61    57    60   1
    62    58    59   2
    63    58    64  am
    64    60    61   1
    65    61    62  ar
    66    61    63  ar
    67    64    65   1
    68    65    66   1
    69    65    69   1
    70    66    67  ar
    71    66    68  ar
    72    69    70   1
    73     1    71   1
    74     1    72   1
    75     1    73   1
    76     2    74   1
    77     3    75   1
    78     4    76   1
    79     4    77   1
    80     4    78   1
    81     5    79   1
    82     5    80   1
    83     5    81   1
    84     9    82   1
    85    10    83   1
    86    10    84   1
    87    11    85   1
    88    11    86   1
    89    12    87   1
    90    12    88   1
    91    15    89   1
    92    16    90   1
    93    16    91   1
    94    19    92   1
    95    20    93   1
    96    23    94   1
    97    23    95   1
    98    24    96   1
    99    25    97   1
   100    26    98   1
   101    29    99   1
   102    29   100   1
   103    30   101   1
   104    30   102   1
   105    33   103   1
   106    33   104   1
   107    34   105   1
   108    35   106   1
   109    38   107   1
   110    38   108   1
   111    41   109   1
   112    42   110   1
   113    43   111   1
   114    44   112   1
   115    45   113   1
   116    48   114   1
   117    48   115   1
   118    50   116   1
   119    51   117   1
   120    52   118   1
   121    53   119   1
   122    55   120   1
   123    56   121   1
   124    57   122   1
   125    60   123   1
   126    60   124   1
   127    64   125   1
   128    65   126   1
   129    69   127   1
   130    69   128   1
   131    70   129   1
@<TRIPOS>SUBSTRUCTURE
     1  DVA      2

