@<TRIPOS>MOLECULE
1zea_ligand_043
   129   131
SMALL
GAST_HUCK
****
This file was generated by PARSER (from files_GN.cpp)

@<TRIPOS>ATOM
      1 N          51.6927   50.1306   76.1953 N.4         1 DVA       0.2381
      2 CA         51.3993   51.2164   77.1597 C.3         1 DVA       0.0675
      3 CB         51.7329   52.6226   76.5405 C.3         1 DVA       0.0139
      4 CG1        52.9416   52.6169   75.5554 C.3         1 DVA      -0.0553
      5 CG2        50.4836   53.2579   75.8603 C.3         1 DVA      -0.0553
      6 C          52.0532   50.9883   78.4543 C.2         1 DVA       0.2295
      7 O          53.0330   50.2484   78.4343 O.2         1 DVA      -0.3905
      8 N          51.7002   51.5627   79.6240 N.am        1 DVA      -0.2471
      9 CA         50.6671   52.5567   79.8184 C.3         1 DVA       0.1339
     10 CB         50.9866   53.2090   81.1922 C.3         1 DVA      -0.0104
     11 CG         51.7662   52.1353   81.9560 C.3         1 DVA      -0.0281
     12 CD         52.4227   51.2962   80.8424 C.3         1 DVA       0.0371
     13 C          49.3073   52.0130   79.7530 C.2         1 DVA       0.2039
     14 O          48.5409   52.4776   78.9186 O.2         1 DVA      -0.3944
     15 N          48.8972   51.0907   80.6146 N.am        1 DVA      -0.2664
     16 CA         47.5719   50.5563   80.7473 C.3         1 DVA       0.1201
     17 C          47.0010   50.7811   82.0659 C.2         1 DVA       0.2008
     18 O          47.5543   51.5434   82.8537 O.2         1 DVA      -0.3947
     19 N          45.8771   50.1530   82.3907 N.am        1 DVA      -0.2618
     20 CA         45.2139   50.1849   83.6650 C.3         1 DVA       0.1539
     21 C          44.0014   50.9950   83.5719 C.2         1 DVA       0.2062
     22 O          43.0464   50.5682   82.9339 O.2         1 DVA      -0.3943
     23 CB         44.9515   48.7292   84.1436 C.3         1 DVA       0.0843
     24 OG         44.1239   47.9768   83.2523 O.3         1 DVA      -0.3903
     25 N          43.9630   52.1998   84.1349 N.am        1 DVA      -0.2635
     26 CA         42.8345   53.0849   84.2506 C.3         1 DVA       0.1330
     27 C          42.8746   53.6382   85.6030 C.2         1 DVA       0.2041
     28 O          43.3511   54.7537   85.8010 O.2         1 DVA      -0.3944
     29 CB         42.8620   54.1631   83.1146 C.3         1 DVA       0.0045
     30 CG         42.5632   53.6469   81.6741 C.3         1 DVA       0.0412
     31 CD         41.1583   53.4333   81.3579 C.2         1 DVA       0.1737
     32 OE1        40.3719   52.9796   82.1803 O.2         1 DVA      -0.3973
     33 NE2        40.6852   53.6656   80.1553 N.am        1 DVA      -0.3009
     34 N          42.4705   52.8913   86.6258 N.am        1 DVA      -0.2625
     35 CA         42.5285   53.2463   88.0217 C.3         1 DVA       0.1369
     36 C          41.6297   54.3470   88.3711 C.2         1 DVA       0.2055
     37 O          40.6857   54.6169   87.6324 O.2         1 DVA      -0.3942
     38 CB         42.2130   51.9694   88.8533 C.3         1 DVA       0.0145
     39 CG         42.5288   52.0718   90.2931 C.2         1 DVA      -0.0027
     40 ND1        43.7448   52.3160   90.8116 N.2         1 DVA      -0.3252
     41 CD2        41.6469   51.8782   91.3553 C.2         1 DVA       0.0291
     42 CE1        43.6218   52.2787   92.1513 C.2         1 DVA       0.0907
     43 NE2        42.3527   52.0055   92.4840 N.pl3       1 DVA      -0.2752
     44 N          41.7987   55.0065   89.5139 N.am        1 DVA      -0.2620
     45 CA         40.9485   56.0451   90.0315 C.3         1 DVA       0.1390
     46 C          41.2510   56.2416   91.4525 C.2         1 DVA       0.2058
     47 O          42.3885   56.5499   91.7953 O.2         1 DVA      -0.3942
     48 CB         40.9762   57.3461   89.1595 C.3         1 DVA       0.0163
     49 CG         42.2170   58.1739   89.2461 C.ar        1 DVA      -0.0493
     50 CD1        43.4454   57.6940   88.7300 C.ar        1 DVA      -0.0685
     51 CD2        42.2045   59.4363   89.8885 C.ar        1 DVA      -0.0685
     52 CE1        44.6324   58.4354   88.8919 C.ar        1 DVA      -0.0398
     53 CE2        43.3877   60.1794   90.0455 C.ar        1 DVA      -0.0398
     54 CZ         44.6073   59.6789   89.5547 C.ar        1 DVA       0.0805
     55 OH         45.7408   60.4048   89.7306 O.3         1 DVA      -0.3376
     56 N          40.3113   56.0237   92.3623 N.am        1 DVA      -0.2620
     57 CA         40.3608   56.2918   93.7741 C.3         1 DVA       0.1423
     58 C          39.4590   55.3344   94.4058 C.2         1 DVA       0.2051
     59 O          38.4005   55.7371   94.8761 O.2         1 DVA      -0.3943
     60 CB         41.7884   56.2422   94.4199 C.3         1 DVA       0.0406
     61 CG         41.7663   56.2009   95.8963 C.2         1 DVA       0.0393
     62 OD1        41.2318   57.2240   96.6093 O.co2       1 DVA      -0.5688
     63 OD2        42.2336   55.1241   96.5662 O.co2       1 DVA      -0.5688
     64 N          39.7825   54.0478   94.4455 N.am        1 DVA      -0.2671
     65 CA         39.0161   52.9629   94.9919 C.3         1 DVA       0.1173
     66 C          38.7378   52.0140   93.8919 C.2         1 DVA       0.0623
     67 O          39.6465   51.0727   93.5382 O.co2       1 DVA      -0.5665
     68 OXT        37.6159   52.1234   93.1482 O.co2       1 DVA      -0.5665
     69 CB         39.7319   52.2342   96.1645 C.3         1 DVA       0.0789
     70 OG         39.9883   53.1144   97.2547 O.3         1 DVA      -0.3910
     71 H1         51.1331   50.2440   75.3488 H           1 DVA       0.2015
     72 H2         51.4996   49.2152   76.6018 H           1 DVA       0.2015
     73 H3         52.6812   50.1596   75.9416 H           1 DVA       0.2015
     74 H4         50.3211   51.1457   77.3133 H           1 DVA       0.1101
     75 H5         51.9995   53.3004   77.3600 H           1 DVA       0.0376
     76 H6         53.1901   53.6390   75.2576 H           1 DVA       0.0236
     77 H7         52.7099   52.0382   74.6529 H           1 DVA       0.0236
     78 H8         53.8160   52.1846   76.0468 H           1 DVA       0.0236
     79 H9         49.6670   53.3511   76.5830 H           1 DVA       0.0236
     80 H10        50.1442   52.6399   75.0217 H           1 DVA       0.0236
     81 H11        50.7122   54.2607   75.4887 H           1 DVA       0.0236
     82 H12        50.7836   53.3456   79.0614 H           1 DVA       0.0802
     83 H13        50.0922   53.5266   81.7352 H           1 DVA       0.0313
     84 H14        51.6284   54.0843   81.0511 H           1 DVA       0.0313
     85 H15        51.0796   51.5242   82.5470 H           1 DVA       0.0287
     86 H16        52.5089   52.5793   82.6237 H           1 DVA       0.0287
     87 H17        53.4739   51.5918   80.7342 H           1 DVA       0.0524
     88 H18        52.3778   50.2312   81.1055 H           1 DVA       0.0524
     89 H19        49.5402   50.7890   81.2719 H           1 DVA       0.1881
     90 H20        47.6476   49.4811   80.5733 H           1 DVA       0.0763
     91 H21        46.8872   50.9652   79.9960 H           1 DVA       0.0763
     92 H22        45.4867   49.5848   81.7065 H           1 DVA       0.1884
     93 H23        45.8604   50.6300   84.4293 H           1 DVA       0.0823
     94 H24        44.4667   48.7411   85.1235 H           1 DVA       0.0606
     95 H25        45.9033   48.2100   84.2486 H           1 DVA       0.0606
     96 H26        44.6120   47.9336   82.4011 H           1 DVA       0.2097
     97 H27        44.7909   52.5120   84.5359 H           1 DVA       0.1883
     98 H28        41.8960   52.5349   84.1618 H           1 DVA       0.0801
     99 H29        43.8547   54.6308   83.1101 H           1 DVA       0.0337
    100 H30        42.1388   54.9534   83.3458 H           1 DVA       0.0337
    101 H31        43.1068   52.7171   81.4938 H           1 DVA       0.0504
    102 H32        42.9673   54.3872   80.9752 H           1 DVA       0.0504
    103 H33        39.7418   53.5252   79.9674 H           1 DVA       0.1814
    104 H34        41.2717   53.9916   79.4538 H           1 DVA       0.1814
    105 H35        42.1308   52.0078   86.4101 H           1 DVA       0.1885
    106 H36        43.5602   53.5454   88.2373 H           1 DVA       0.0817
    107 H37        42.8007   51.1311   88.4714 H           1 DVA       0.0420
    108 H38        41.1575   51.7102   88.7266 H           1 DVA       0.0420
    109 H39        40.6496   51.6624   91.2921 H           1 DVA       0.0729
    110 H40        44.3827   52.4248   92.8173 H           1 DVA       0.1199
    111 H41        42.0112   51.9147   93.3894 H           1 DVA       0.2361
    112 H42        42.5406   54.7287   90.0801 H           1 DVA       0.1885
    113 H43        39.9142   55.6849   89.9715 H           1 DVA       0.0821
    114 H44        40.1086   57.9494   89.4507 H           1 DVA       0.0453
    115 H45        40.8230   57.0817   88.1096 H           1 DVA       0.0453
    116 H46        43.4921   56.7961   88.2439 H           1 DVA       0.0530
    117 H47        41.3355   59.8180   90.2689 H           1 DVA       0.0530
    118 H48        45.5167   58.0627   88.5296 H           1 DVA       0.0525
    119 H49        43.3658   61.0809   90.5279 H           1 DVA       0.0525
    120 H50        46.1938   60.0065   90.5038 H           1 DVA       0.2458
    121 H51        39.4453   55.7509   92.0194 H           1 DVA       0.1884
    122 H52        39.9754   57.3087   93.9173 H           1 DVA       0.0819
    123 H53        42.3588   57.1292   94.1372 H           1 DVA       0.0478
    124 H54        42.3371   55.3745   94.0386 H           1 DVA       0.0478
    125 H55        40.6254   53.8051   94.0258 H           1 DVA       0.1876
    126 H56        38.0605   53.3534   95.3531 H           1 DVA       0.0749
    127 H57        40.6826   51.8148   95.8232 H           1 DVA       0.0599
    128 H58        39.1112   51.4187   96.5464 H           1 DVA       0.0599
    129 H59        40.4624   52.5709   97.9227 H           1 DVA       0.2096
@<TRIPOS>BOND
     1     1     2   1
     2     2     3   1
     3     2     6   1
     4     3     4   1
     5     3     5   1
     6     6     7   2
     7     6     8  am
     8     8     9   1
     9     8    12   1
    10     9    10   1
    11     9    13   1
    12    10    11   1
    13    11    12   1
    14    13    14   2
    15    13    15  am
    16    15    16   1
    17    16    17   1
    18    17    18   2
    19    17    19  am
    20    19    20   1
    21    20    21   1
    22    20    23   1
    23    21    22   2
    24    21    25  am
    25    23    24   1
    26    25    26   1
    27    26    27   1
    28    26    29   1
    29    27    28   2
    30    27    34  am
    31    29    30   1
    32    30    31   1
    33    31    32   2
    34    31    33  am
    35    34    35   1
    36    35    36   1
    37    35    38   1
    38    36    37   2
    39    36    44  am
    40    38    39   1
    41    39    40   1
    42    39    41   2
    43    40    42   2
    44    41    43   1
    45    42    43   1
    46    44    45   1
    47    45    46   1
    48    45    48   1
    49    46    47   2
    50    46    56  am
    51    48    49   1
    52    49    50  ar
    53    49    51  ar
    54    50    52  ar
    55    51    53  ar
    56    52    54  ar
    57    53    54  ar
    58    54    55   1
    59    56    57   1
    60    57    58   1
    61    57    60   1
    62    58    59   2
    63    58    64  am
    64    60    61   1
    65    61    62  ar
    66    61    63  ar
    67    64    65   1
    68    65    66   1
    69    65    69   1
    70    66    67  ar
    71    66    68  ar
    72    69    70   1
    73     1    71   1
    74     1    72   1
    75     1    73   1
    76     2    74   1
    77     3    75   1
    78     4    76   1
    79     4    77   1
    80     4    78   1
    81     5    79   1
    82     5    80   1
    83     5    81   1
    84     9    82   1
    85    10    83   1
    86    10    84   1
    87    11    85   1
    88    11    86   1
    89    12    87   1
    90    12    88   1
    91    15    89   1
    92    16    90   1
    93    16    91   1
    94    19    92   1
    95    20    93   1
    96    23    94   1
    97    23    95   1
    98    24    96   1
    99    25    97   1
   100    26    98   1
   101    29    99   1
   102    29   100   1
   103    30   101   1
   104    30   102   1
   105    33   103   1
   106    33   104   1
   107    34   105   1
   108    35   106   1
   109    38   107   1
   110    38   108   1
   111    41   109   1
   112    42   110   1
   113    43   111   1
   114    44   112   1
   115    45   113   1
   116    48   114   1
   117    48   115   1
   118    50   116   1
   119    51   117   1
   120    52   118   1
   121    53   119   1
   122    55   120   1
   123    56   121   1
   124    57   122   1
   125    60   123   1
   126    60   124   1
   127    64   125   1
   128    65   126   1
   129    69   127   1
   130    69   128   1
   131    70   129   1
@<TRIPOS>SUBSTRUCTURE
     1  DVA      2

