@<TRIPOS>MOLECULE
1zea_ligand_028
   129   131
SMALL
GAST_HUCK
****
This file was generated by PARSER (from files_GN.cpp)

@<TRIPOS>ATOM
      1 N          43.0930   53.7484   94.2774 N.4         1 DVA       0.2381
      2 CA         41.7602   53.4679   94.8441 C.3         1 DVA       0.0675
      3 CB         41.8117   53.2771   96.4032 C.3         1 DVA       0.0139
      4 CG1        42.3890   54.5229   97.1401 C.3         1 DVA      -0.0553
      5 CG2        40.4133   52.9290   96.9952 C.3         1 DVA      -0.0553
      6 C          41.2087   52.3126   94.1283 C.2         1 DVA       0.2295
      7 O          41.7843   51.2483   94.3315 O.2         1 DVA      -0.3905
      8 N          40.1513   52.3224   93.2933 N.am        1 DVA      -0.2471
      9 CA         39.4356   53.4876   92.8272 C.3         1 DVA       0.1339
     10 CB         38.3011   52.9551   91.9153 C.3         1 DVA      -0.0104
     11 CG         38.1388   51.4959   92.3561 C.3         1 DVA      -0.0281
     12 CD         39.5594   51.1069   92.7956 C.3         1 DVA       0.0371
     13 C          40.2649   54.4571   92.1183 C.2         1 DVA       0.2039
     14 O          40.9531   54.0694   91.1818 O.2         1 DVA      -0.3944
     15 N          40.2652   55.7362   92.4881 N.am        1 DVA      -0.2664
     16 CA         41.0450   56.8024   91.9192 C.3         1 DVA       0.1201
     17 C          40.6518   57.2347   90.5828 C.2         1 DVA       0.2008
     18 O          39.9876   56.4956   89.8646 O.2         1 DVA      -0.3947
     19 N          41.0652   58.4251   90.1593 N.am        1 DVA      -0.2618
     20 CA         40.8365   59.0340   88.8775 C.3         1 DVA       0.1539
     21 C          41.4421   58.3044   87.7679 C.2         1 DVA       0.2062
     22 O          40.8897   58.2922   86.6757 O.2         1 DVA      -0.3943
     23 CB         39.3366   59.4452   88.6849 C.3         1 DVA       0.0843
     24 OG         38.4056   58.4466   89.1123 O.3         1 DVA      -0.3903
     25 N          42.6219   57.7208   87.9503 N.am        1 DVA      -0.2635
     26 CA         43.4454   57.1079   86.9358 C.3         1 DVA       0.1330
     27 C          44.7263   57.8067   86.9209 C.2         1 DVA       0.2041
     28 O          45.1669   58.2123   87.9958 O.2         1 DVA      -0.3944
     29 CB         43.6299   55.5597   87.1323 C.3         1 DVA       0.0045
     30 CG         42.7323   54.8407   88.1881 C.3         1 DVA       0.0412
     31 CD         41.4306   54.4176   87.6983 C.2         1 DVA       0.1737
     32 OE1        40.5230   55.2249   87.5891 O.2         1 DVA      -0.3973
     33 NE2        41.1532   53.1476   87.4746 N.am        1 DVA      -0.3009
     34 N          45.4107   58.0135   85.7940 N.am        1 DVA      -0.2625
     35 CA         46.7428   58.5522   85.6924 C.3         1 DVA       0.1369
     36 C          47.7106   57.4583   85.5181 C.2         1 DVA       0.2055
     37 O          48.6660   57.4103   86.2860 O.2         1 DVA      -0.3942
     38 CB         46.8719   59.7180   84.6560 C.3         1 DVA       0.0145
     39 CG         45.9108   59.7735   83.5349 C.2         1 DVA      -0.0027
     40 ND1        44.6188   60.1249   83.6534 N.2         1 DVA      -0.3252
     41 CD2        46.2029   59.6697   82.1806 C.2         1 DVA       0.0291
     42 CE1        44.1180   60.2100   82.4081 C.2         1 DVA       0.0907
     43 NE2        45.0739   59.9267   81.5111 N.pl3       1 DVA      -0.2752
     44 N          47.5038   56.4820   84.6333 N.am        1 DVA      -0.2620
     45 CA         48.1858   55.2081   84.5722 C.3         1 DVA       0.1390
     46 C          47.2320   54.1682   84.9431 C.2         1 DVA       0.2058
     47 O          46.0436   54.3098   84.6706 O.2         1 DVA      -0.3942
     48 CB         48.8859   54.9685   83.2004 C.3         1 DVA       0.0163
     49 CG         48.0558   55.2199   81.9929 C.ar        1 DVA      -0.0493
     50 CD1        47.5454   54.1554   81.2052 C.ar        1 DVA      -0.0685
     51 CD2        47.7415   56.5425   81.6091 C.ar        1 DVA      -0.0685
     52 CE1        46.7474   54.4111   80.0712 C.ar        1 DVA      -0.0398
     53 CE2        46.9346   56.8071   80.4903 C.ar        1 DVA      -0.0398
     54 CZ         46.4388   55.7410   79.7137 C.ar        1 DVA       0.0805
     55 OH         45.6539   56.0140   78.6512 O.3         1 DVA      -0.3376
     56 N          47.6485   53.1029   85.6157 N.am        1 DVA      -0.2620
     57 CA         46.8721   51.9690   86.0257 C.3         1 DVA       0.1423
     58 C          47.0489   50.8769   85.0700 C.2         1 DVA       0.2051
     59 O          48.0878   50.2268   85.1175 O.2         1 DVA      -0.3943
     60 CB         47.3084   51.5857   87.4733 C.3         1 DVA       0.0406
     61 CG         46.4951   50.5274   88.1059 C.2         1 DVA       0.0393
     62 OD1        45.5092   49.9086   87.4169 O.co2       1 DVA      -0.5688
     63 OD2        46.6859   50.2155   89.4090 O.co2       1 DVA      -0.5688
     64 N          46.0754   50.5608   84.2272 N.am        1 DVA      -0.2671
     65 CA         46.0944   49.4803   83.2848 C.3         1 DVA       0.1173
     66 C          44.7030   49.0667   82.9972 C.2         1 DVA       0.0623
     67 O          43.8151   49.9533   82.4889 O.co2       1 DVA      -0.5665
     68 OXT        44.3640   47.7621   82.9843 O.co2       1 DVA      -0.5665
     69 CB         46.8556   49.8124   81.9574 C.3         1 DVA       0.0789
     70 OG         47.8649   50.8143   82.0878 O.3         1 DVA      -0.3910
     71 H1         43.4491   54.6304   94.6542 H           1 DVA       0.2015
     72 H2         43.0226   53.8288   93.2611 H           1 DVA       0.2015
     73 H3         43.7389   52.9928   94.5162 H           1 DVA       0.2015
     74 H4         41.1608   54.3607   94.6653 H           1 DVA       0.1101
     75 H5         42.4788   52.4409   96.6345 H           1 DVA       0.0376
     76 H6         41.8129   55.4182   96.8979 H           1 DVA       0.0236
     77 H7         43.4306   54.6908   96.8521 H           1 DVA       0.0236
     78 H8         42.3702   54.3771   98.2224 H           1 DVA       0.0236
     79 H9         39.7054   53.7420   96.8114 H           1 DVA       0.0236
     80 H10        40.4809   52.7706   98.0764 H           1 DVA       0.0236
     81 H11        40.0186   52.0172   96.5474 H           1 DVA       0.0236
     82 H12        38.9646   53.9523   93.7026 H           1 DVA       0.0802
     83 H13        38.5648   52.9804   90.8548 H           1 DVA       0.0313
     84 H14        37.3714   53.5142   92.0622 H           1 DVA       0.0313
     85 H15        37.7683   50.8590   91.5463 H           1 DVA       0.0287
     86 H16        37.4478   51.4340   93.2063 H           1 DVA       0.0287
     87 H17        39.4927   50.3252   93.5594 H           1 DVA       0.0524
     88 H18        40.1409   50.7319   91.9445 H           1 DVA       0.0524
     89 H19        39.6919   55.9732   93.2418 H           1 DVA       0.1881
     90 H20        42.1032   56.4968   91.9018 H           1 DVA       0.0763
     91 H21        40.9507   57.6523   92.6055 H           1 DVA       0.0763
     92 H22        41.6160   58.9325   90.7791 H           1 DVA       0.1884
     93 H23        41.3770   59.9891   88.9175 H           1 DVA       0.0823
     94 H24        39.1378   59.6559   87.6233 H           1 DVA       0.0606
     95 H25        39.1292   60.3632   89.2483 H           1 DVA       0.0606
     96 H26        38.7463   57.6182   88.7078 H           1 DVA       0.2097
     97 H27        42.9752   57.7188   88.8539 H           1 DVA       0.1883
     98 H28        42.9696   57.2353   85.9551 H           1 DVA       0.0801
     99 H29        44.6767   55.3369   87.3993 H           1 DVA       0.0337
    100 H30        43.4655   55.0769   86.1573 H           1 DVA       0.0337
    101 H31        42.6304   55.5014   89.0544 H           1 DVA       0.0504
    102 H32        43.2681   53.9442   88.5312 H           1 DVA       0.0504
    103 H33        40.2437   52.9046   87.2530 H           1 DVA       0.1814
    104 H34        41.8425   52.4720   87.5727 H           1 DVA       0.1814
    105 H35        44.9984   57.6902   84.9809 H           1 DVA       0.1885
    106 H36        46.9631   59.0386   86.6569 H           1 DVA       0.0817
    107 H37        47.8946   59.7139   84.2544 H           1 DVA       0.0420
    108 H38        46.7496   60.6607   85.1901 H           1 DVA       0.0420
    109 H39        47.1183   59.4730   81.7693 H           1 DVA       0.0729
    110 H40        43.1526   60.4625   82.1754 H           1 DVA       0.1199
    111 H41        44.9736   59.9215   80.5423 H           1 DVA       0.2361
    112 H42        46.7353   56.5929   84.0469 H           1 DVA       0.1885
    113 H43        49.0077   55.2013   85.2951 H           1 DVA       0.0821
    114 H44        49.2606   53.9463   83.1835 H           1 DVA       0.0453
    115 H45        49.7704   55.6119   83.1269 H           1 DVA       0.0453
    116 H46        47.7475   53.1777   81.4497 H           1 DVA       0.0530
    117 H47        48.1144   57.3264   82.1450 H           1 DVA       0.0530
    118 H48        46.3800   53.6314   79.5068 H           1 DVA       0.0525
    119 H49        46.7171   57.7718   80.2299 H           1 DVA       0.0525
    120 H50        46.1819   55.7516   77.8647 H           1 DVA       0.2458
    121 H51        48.5895   53.0986   85.8634 H           1 DVA       0.1884
    122 H52        45.8177   52.2633   86.0637 H           1 DVA       0.0819
    123 H53        47.2387   52.4760   88.1089 H           1 DVA       0.0478
    124 H54        48.3567   51.2736   87.4625 H           1 DVA       0.0478
    125 H55        45.2661   51.0878   84.2844 H           1 DVA       0.1876
    126 H56        46.5913   48.6293   83.7639 H           1 DVA       0.0749
    127 H57        46.1604   50.1682   81.1845 H           1 DVA       0.0599
    128 H58        47.3142   48.8956   81.5827 H           1 DVA       0.0599
    129 H59        48.4186   50.7084   81.2813 H           1 DVA       0.2096
@<TRIPOS>BOND
     1     1     2   1
     2     2     3   1
     3     2     6   1
     4     3     4   1
     5     3     5   1
     6     6     7   2
     7     6     8  am
     8     8     9   1
     9     8    12   1
    10     9    10   1
    11     9    13   1
    12    10    11   1
    13    11    12   1
    14    13    14   2
    15    13    15  am
    16    15    16   1
    17    16    17   1
    18    17    18   2
    19    17    19  am
    20    19    20   1
    21    20    21   1
    22    20    23   1
    23    21    22   2
    24    21    25  am
    25    23    24   1
    26    25    26   1
    27    26    27   1
    28    26    29   1
    29    27    28   2
    30    27    34  am
    31    29    30   1
    32    30    31   1
    33    31    32   2
    34    31    33  am
    35    34    35   1
    36    35    36   1
    37    35    38   1
    38    36    37   2
    39    36    44  am
    40    38    39   1
    41    39    40   1
    42    39    41   2
    43    40    42   2
    44    41    43   1
    45    42    43   1
    46    44    45   1
    47    45    46   1
    48    45    48   1
    49    46    47   2
    50    46    56  am
    51    48    49   1
    52    49    50  ar
    53    49    51  ar
    54    50    52  ar
    55    51    53  ar
    56    52    54  ar
    57    53    54  ar
    58    54    55   1
    59    56    57   1
    60    57    58   1
    61    57    60   1
    62    58    59   2
    63    58    64  am
    64    60    61   1
    65    61    62  ar
    66    61    63  ar
    67    64    65   1
    68    65    66   1
    69    65    69   1
    70    66    67  ar
    71    66    68  ar
    72    69    70   1
    73     1    71   1
    74     1    72   1
    75     1    73   1
    76     2    74   1
    77     3    75   1
    78     4    76   1
    79     4    77   1
    80     4    78   1
    81     5    79   1
    82     5    80   1
    83     5    81   1
    84     9    82   1
    85    10    83   1
    86    10    84   1
    87    11    85   1
    88    11    86   1
    89    12    87   1
    90    12    88   1
    91    15    89   1
    92    16    90   1
    93    16    91   1
    94    19    92   1
    95    20    93   1
    96    23    94   1
    97    23    95   1
    98    24    96   1
    99    25    97   1
   100    26    98   1
   101    29    99   1
   102    29   100   1
   103    30   101   1
   104    30   102   1
   105    33   103   1
   106    33   104   1
   107    34   105   1
   108    35   106   1
   109    38   107   1
   110    38   108   1
   111    41   109   1
   112    42   110   1
   113    43   111   1
   114    44   112   1
   115    45   113   1
   116    48   114   1
   117    48   115   1
   118    50   116   1
   119    51   117   1
   120    52   118   1
   121    53   119   1
   122    55   120   1
   123    56   121   1
   124    57   122   1
   125    60   123   1
   126    60   124   1
   127    64   125   1
   128    65   126   1
   129    69   127   1
   130    69   128   1
   131    70   129   1
@<TRIPOS>SUBSTRUCTURE
     1  DVA      2

