@<TRIPOS>MOLECULE
1zea_ligand_000
   129   131
SMALL
GAST_HUCK
****
This file was generated by PARSER (from files_GN.cpp)

@<TRIPOS>ATOM
      1 N          51.0264   49.9147   77.1552 N.4         1 DVA       0.2381
      2 CA         51.9069   50.9922   77.6449 C.3         1 DVA       0.0675
      3 CB         53.1056   51.2791   76.6685 C.3         1 DVA       0.0139
      4 CG1        53.9390   50.0273   76.2627 C.3         1 DVA      -0.0553
      5 CG2        52.6326   52.0233   75.3871 C.3         1 DVA      -0.0553
      6 C          52.3202   50.7058   79.0234 C.2         1 DVA       0.2295
      7 O          52.9897   49.6890   79.1776 O.2         1 DVA      -0.3905
      8 N          52.0212   51.4389   80.1152 N.am        1 DVA      -0.2471
      9 CA         51.1788   52.6131   80.1478 C.3         1 DVA       0.1339
     10 CB         51.4482   53.2545   81.5327 C.3         1 DVA      -0.0104
     11 CG         51.9026   52.0904   82.4208 C.3         1 DVA      -0.0281
     12 CD         52.5291   51.1038   81.4212 C.3         1 DVA       0.0371
     13 C          49.7647   52.2912   79.9539 C.2         1 DVA       0.2039
     14 O          49.1217   52.9100   79.1137 O.2         1 DVA      -0.3944
     15 N          49.2084   51.3333   80.6808 N.am        1 DVA      -0.2664
     16 CA         47.8476   50.8967   80.6840 C.3         1 DVA       0.1201
     17 C          47.3400   50.7398   82.0338 C.2         1 DVA       0.2008
     18 O          47.8004   51.4063   82.9564 O.2         1 DVA      -0.3947
     19 N          46.3817   49.8477   82.2607 N.am        1 DVA      -0.2618
     20 CA         45.8436   49.5064   83.5493 C.3         1 DVA       0.1539
     21 C          45.3818   50.6552   84.3245 C.2         1 DVA       0.2062
     22 O          45.3209   51.7774   83.8276 O.2         1 DVA      -0.3943
     23 CB         44.7509   48.4195   83.3727 C.3         1 DVA       0.0843
     24 OG         43.6805   48.8611   82.5469 O.3         1 DVA      -0.3903
     25 N          45.1103   50.4811   85.6139 N.am        1 DVA      -0.2635
     26 CA         44.9346   51.4908   86.6300 C.3         1 DVA       0.1330
     27 C          43.9818   52.5363   86.2592 C.2         1 DVA       0.2041
     28 O          44.3519   53.7061   86.2792 O.2         1 DVA      -0.3944
     29 CB         44.5352   50.7980   87.9757 C.3         1 DVA       0.0045
     30 CG         44.7585   51.6562   89.2589 C.3         1 DVA       0.0412
     31 CD         46.1072   51.5543   89.7873 C.2         1 DVA       0.1737
     32 OE1        46.5056   50.4822   90.2299 O.2         1 DVA      -0.3973
     33 NE2        46.9297   52.5817   89.8428 N.am        1 DVA      -0.3009
     34 N          42.7314   52.2269   85.9265 N.am        1 DVA      -0.2625
     35 CA         41.6575   53.1273   85.5923 C.3         1 DVA       0.1369
     36 C          40.9825   53.6971   86.7651 C.2         1 DVA       0.2055
     37 O          40.1501   54.5783   86.5707 O.2         1 DVA      -0.3942
     38 CB         42.0785   54.2166   84.5257 C.3         1 DVA       0.0145
     39 CG         41.7506   53.9003   83.1145 C.2         1 DVA      -0.0027
     40 ND1        42.5497   54.1378   82.0552 N.2         1 DVA      -0.3252
     41 CD2        40.5322   53.4466   82.6169 C.2         1 DVA       0.0291
     42 CE1        41.8527   53.8464   80.9463 C.2         1 DVA       0.0907
     43 NE2        40.6266   53.4093   81.2895 N.pl3       1 DVA      -0.2752
     44 N          41.2124   53.2839   88.0102 N.am        1 DVA      -0.2620
     45 CA         40.6703   53.8487   89.2220 C.3         1 DVA       0.1390
     46 C          40.4422   52.8542   90.2676 C.2         1 DVA       0.2058
     47 O          41.1035   51.8154   90.2949 O.2         1 DVA      -0.3942
     48 CB         41.5991   55.0115   89.7293 C.3         1 DVA       0.0163
     49 CG         40.9957   56.3575   89.5137 C.ar        1 DVA      -0.0493
     50 CD1        40.4937   57.1081   90.5998 C.ar        1 DVA      -0.0685
     51 CD2        40.8763   56.8886   88.2057 C.ar        1 DVA      -0.0685
     52 CE1        39.9164   58.3732   90.3941 C.ar        1 DVA      -0.0398
     53 CE2        40.2896   58.1497   87.9976 C.ar        1 DVA      -0.0398
     54 CZ         39.8139   58.8979   89.0919 C.ar        1 DVA       0.0805
     55 OH         39.2790   60.1286   88.9051 O.3         1 DVA      -0.3376
     56 N          39.6425   53.1958   91.2669 N.am        1 DVA      -0.2620
     57 CA         39.4659   52.5344   92.5242 C.3         1 DVA       0.1423
     58 C          38.5541   53.3688   93.3028 C.2         1 DVA       0.2051
     59 O          37.4078   53.5374   92.8938 O.2         1 DVA      -0.3943
     60 CB         38.9494   51.0690   92.3592 C.3         1 DVA       0.0406
     61 CG         38.8109   50.3429   93.6353 C.2         1 DVA       0.0393
     62 OD1        39.9009   50.0317   94.3694 O.co2       1 DVA      -0.5688
     63 OD2        37.5979   49.9156   94.0605 O.co2       1 DVA      -0.5688
     64 N          38.9739   53.9776   94.4111 N.am        1 DVA      -0.2671
     65 CA         38.2296   54.8850   95.2430 C.3         1 DVA       0.1173
     66 C          37.9548   54.2080   96.5297 C.2         1 DVA       0.0623
     67 O          38.9653   53.7754   97.3224 O.co2       1 DVA      -0.5665
     68 OXT        36.6815   53.9691   96.9223 O.co2       1 DVA      -0.5665
     69 CB         39.0141   56.2048   95.4613 C.3         1 DVA       0.0789
     70 OG         39.1537   56.9197   94.2352 O.3         1 DVA      -0.3910
     71 H1         50.6843   50.1478   76.2211 H           1 DVA       0.2015
     72 H2         50.2328   49.7885   77.7899 H           1 DVA       0.2015
     73 H3         51.5360   49.0343   77.1018 H           1 DVA       0.2015
     74 H4         51.2745   51.8772   77.6359 H           1 DVA       0.1101
     75 H5         53.7894   51.9633   77.1824 H           1 DVA       0.0376
     76 H6         54.7576   50.3159   75.6000 H           1 DVA       0.0236
     77 H7         53.3173   49.2976   75.7403 H           1 DVA       0.0236
     78 H8         54.3834   49.5484   77.1342 H           1 DVA       0.0236
     79 H9         52.1261   52.9538   75.6495 H           1 DVA       0.0236
     80 H10        51.9449   51.4028   74.8088 H           1 DVA       0.0236
     81 H11        53.4854   52.2768   74.7536 H           1 DVA       0.0236
     82 H12        51.5151   53.3345   79.3942 H           1 DVA       0.0802
     83 H13        50.5771   53.7650   81.9559 H           1 DVA       0.0313
     84 H14        52.2653   53.9800   81.4550 H           1 DVA       0.0313
     85 H15        51.0412   51.6374   82.9186 H           1 DVA       0.0287
     86 H16        52.6223   52.4123   83.1772 H           1 DVA       0.0287
     87 H17        53.6179   51.2055   81.4263 H           1 DVA       0.0524
     88 H18        52.2611   50.0791   81.6970 H           1 DVA       0.0524
     89 H19        49.7868   50.8775   81.3135 H           1 DVA       0.1881
     90 H20        47.8290   49.9269   80.1848 H           1 DVA       0.0763
     91 H21        47.1853   51.5732   80.1372 H           1 DVA       0.0763
     92 H22        46.0781   49.3252   81.5004 H           1 DVA       0.1884
     93 H23        46.6571   49.0387   84.1166 H           1 DVA       0.0823
     94 H24        44.3501   48.1163   84.3411 H           1 DVA       0.0606
     95 H25        45.1890   47.5356   82.9081 H           1 DVA       0.0606
     96 H26        43.9997   48.7130   81.6323 H           1 DVA       0.2097
     97 H27        45.1487   49.5625   85.9309 H           1 DVA       0.1883
     98 H28        45.9242   51.9357   86.7753 H           1 DVA       0.0801
     99 H29        45.1067   49.8695   88.0776 H           1 DVA       0.0337
    100 H30        43.4801   50.5022   87.9309 H           1 DVA       0.0337
    101 H31        44.0724   51.3080   90.0363 H           1 DVA       0.0504
    102 H32        44.5048   52.6979   89.0520 H           1 DVA       0.0504
    103 H33        47.8197   52.4658   90.2160 H           1 DVA       0.1814
    104 H34        46.6530   53.4527   89.5081 H           1 DVA       0.1814
    105 H35        42.4948   51.2937   85.9769 H           1 DVA       0.1885
    106 H36        40.9046   52.4822   85.1295 H           1 DVA       0.0817
    107 H37        43.1548   54.4090   84.5976 H           1 DVA       0.0420
    108 H38        41.5918   55.1756   84.7354 H           1 DVA       0.0420
    109 H39        39.7003   53.2089   83.1609 H           1 DVA       0.0729
    110 H40        42.1929   53.9433   79.9923 H           1 DVA       0.1199
    111 H41        39.9176   53.1677   80.6722 H           1 DVA       0.2361
    112 H42        41.8801   52.5908   88.1330 H           1 DVA       0.1885
    113 H43        39.6756   54.2566   88.9921 H           1 DVA       0.0821
    114 H44        42.5713   54.9755   89.2289 H           1 DVA       0.0453
    115 H45        41.8274   54.8957   90.7962 H           1 DVA       0.0453
    116 H46        40.5417   56.7332   91.5502 H           1 DVA       0.0530
    117 H47        41.2164   56.3587   87.3982 H           1 DVA       0.0530
    118 H48        39.5680   58.9044   91.1926 H           1 DVA       0.0525
    119 H49        40.2212   58.5323   87.0530 H           1 DVA       0.0525
    120 H50        38.4621   59.9800   88.3789 H           1 DVA       0.2458
    121 H51        39.1908   54.0533   91.1730 H           1 DVA       0.1884
    122 H52        40.4404   52.4959   93.0249 H           1 DVA       0.0819
    123 H53        39.6594   50.5048   91.7461 H           1 DVA       0.0478
    124 H54        37.9915   51.0707   91.8291 H           1 DVA       0.0478
    125 H55        39.8821   53.7799   94.6991 H           1 DVA       0.1876
    126 H56        37.2720   55.1484   94.7823 H           1 DVA       0.0749
    127 H57        40.0123   55.9972   95.8639 H           1 DVA       0.0599
    128 H58        38.4756   56.8420   96.1710 H           1 DVA       0.0599
    129 H59        39.6548   57.7330   94.4780 H           1 DVA       0.2096
@<TRIPOS>BOND
     1     1     2   1
     2     2     3   1
     3     2     6   1
     4     3     4   1
     5     3     5   1
     6     6     7   2
     7     6     8  am
     8     8     9   1
     9     8    12   1
    10     9    10   1
    11     9    13   1
    12    10    11   1
    13    11    12   1
    14    13    14   2
    15    13    15  am
    16    15    16   1
    17    16    17   1
    18    17    18   2
    19    17    19  am
    20    19    20   1
    21    20    21   1
    22    20    23   1
    23    21    22   2
    24    21    25  am
    25    23    24   1
    26    25    26   1
    27    26    27   1
    28    26    29   1
    29    27    28   2
    30    27    34  am
    31    29    30   1
    32    30    31   1
    33    31    32   2
    34    31    33  am
    35    34    35   1
    36    35    36   1
    37    35    38   1
    38    36    37   2
    39    36    44  am
    40    38    39   1
    41    39    40   1
    42    39    41   2
    43    40    42   2
    44    41    43   1
    45    42    43   1
    46    44    45   1
    47    45    46   1
    48    45    48   1
    49    46    47   2
    50    46    56  am
    51    48    49   1
    52    49    50  ar
    53    49    51  ar
    54    50    52  ar
    55    51    53  ar
    56    52    54  ar
    57    53    54  ar
    58    54    55   1
    59    56    57   1
    60    57    58   1
    61    57    60   1
    62    58    59   2
    63    58    64  am
    64    60    61   1
    65    61    62  ar
    66    61    63  ar
    67    64    65   1
    68    65    66   1
    69    65    69   1
    70    66    67  ar
    71    66    68  ar
    72    69    70   1
    73     1    71   1
    74     1    72   1
    75     1    73   1
    76     2    74   1
    77     3    75   1
    78     4    76   1
    79     4    77   1
    80     4    78   1
    81     5    79   1
    82     5    80   1
    83     5    81   1
    84     9    82   1
    85    10    83   1
    86    10    84   1
    87    11    85   1
    88    11    86   1
    89    12    87   1
    90    12    88   1
    91    15    89   1
    92    16    90   1
    93    16    91   1
    94    19    92   1
    95    20    93   1
    96    23    94   1
    97    23    95   1
    98    24    96   1
    99    25    97   1
   100    26    98   1
   101    29    99   1
   102    29   100   1
   103    30   101   1
   104    30   102   1
   105    33   103   1
   106    33   104   1
   107    34   105   1
   108    35   106   1
   109    38   107   1
   110    38   108   1
   111    41   109   1
   112    42   110   1
   113    43   111   1
   114    44   112   1
   115    45   113   1
   116    48   114   1
   117    48   115   1
   118    50   116   1
   119    51   117   1
   120    52   118   1
   121    53   119   1
   122    55   120   1
   123    56   121   1
   124    57   122   1
   125    60   123   1
   126    60   124   1
   127    64   125   1
   128    65   126   1
   129    69   127   1
   130    69   128   1
   131    70   129   1
@<TRIPOS>SUBSTRUCTURE
     1  DVA      2

