@<TRIPOS>MOLECULE
1zea_ligand_045
   129   131
SMALL
GAST_HUCK
****
This file was generated by PARSER (from files_GN.cpp)

@<TRIPOS>ATOM
      1 N          51.8788   48.8503   78.6281 N.4         1 DVA       0.2381
      2 CA         52.1648   50.2665   78.9326 C.3         1 DVA       0.0675
      3 CB         53.4050   50.7927   78.1286 C.3         1 DVA       0.0139
      4 CG1        54.7101   49.9879   78.3898 C.3         1 DVA      -0.0553
      5 CG2        53.1144   50.8694   76.6025 C.3         1 DVA      -0.0553
      6 C          52.2916   50.4710   80.3839 C.2         1 DVA       0.2295
      7 O          52.7759   49.5356   81.0134 O.2         1 DVA      -0.3905
      8 N          51.9664   51.6007   81.0403 N.am        1 DVA      -0.2471
      9 CA         51.2947   52.7495   80.4740 C.3         1 DVA       0.1339
     10 CB         51.5570   53.8782   81.5042 C.3         1 DVA      -0.0104
     11 CG         51.6783   53.1365   82.8389 C.3         1 DVA      -0.0281
     12 CD         52.2966   51.7925   82.4285 C.3         1 DVA       0.0371
     13 C          49.8660   52.5591   80.2120 C.2         1 DVA       0.2039
     14 O          49.3511   53.3067   79.3911 O.2         1 DVA      -0.3944
     15 N          49.1438   51.6265   80.8331 N.am        1 DVA      -0.2664
     16 CA         47.7422   51.3716   80.6641 C.3         1 DVA       0.1201
     17 C          47.1079   51.1579   81.9483 C.2         1 DVA       0.2008
     18 O          47.3844   51.9289   82.8628 O.2         1 DVA      -0.3947
     19 N          46.2306   50.1693   82.1285 N.am        1 DVA      -0.2618
     20 CA         45.5357   49.8751   83.3495 C.3         1 DVA       0.1539
     21 C          44.4899   50.8530   83.6211 C.2         1 DVA       0.2062
     22 O          43.3763   50.6819   83.1220 O.2         1 DVA      -0.3943
     23 CB         44.9852   48.4217   83.3409 C.3         1 DVA       0.0843
     24 OG         43.8024   48.2809   82.5589 O.3         1 DVA      -0.3903
     25 N          44.7793   51.9498   84.3124 N.am        1 DVA      -0.2635
     26 CA         43.8599   52.9778   84.7174 C.3         1 DVA       0.1330
     27 C          43.6142   52.9013   86.1593 C.2         1 DVA       0.2041
     28 O          44.3311   52.2377   86.8947 O.2         1 DVA      -0.3944
     29 CB         44.4369   54.3699   84.3088 C.3         1 DVA       0.0045
     30 CG         44.8563   54.5003   82.8099 C.3         1 DVA       0.0412
     31 CD         43.8141   54.3262   81.8095 C.2         1 DVA       0.1737
     32 OE1        42.6309   54.5128   82.0622 O.2         1 DVA      -0.3973
     33 NE2        44.1328   54.0311   80.5708 N.am        1 DVA      -0.3009
     34 N          42.5991   53.5885   86.6597 N.am        1 DVA      -0.2625
     35 CA         42.2691   53.7390   88.0548 C.3         1 DVA       0.1369
     36 C          43.2691   54.5674   88.7427 C.2         1 DVA       0.2055
     37 O          44.3878   54.7187   88.2555 O.2         1 DVA      -0.3942
     38 CB         40.8041   54.2893   88.1474 C.3         1 DVA       0.0145
     39 CG         40.0435   53.8061   89.3222 C.2         1 DVA      -0.0027
     40 ND1        40.5048   53.7588   90.5844 N.2         1 DVA      -0.3252
     41 CD2        38.7336   53.3117   89.3272 C.2         1 DVA       0.0291
     42 CE1        39.5190   53.2458   91.3438 C.2         1 DVA       0.0907
     43 NE2        38.4400   52.9753   90.5886 N.pl3       1 DVA      -0.2752
     44 N          42.9561   55.1844   89.8817 N.am        1 DVA      -0.2620
     45 CA         43.8033   56.0879   90.6336 C.3         1 DVA       0.1390
     46 C          45.0888   55.4714   90.9893 C.2         1 DVA       0.2058
     47 O          46.1355   56.1043   90.8594 O.2         1 DVA      -0.3942
     48 CB         43.9248   57.5050   89.9513 C.3         1 DVA       0.0163
     49 CG         42.8326   57.8746   89.0068 C.ar        1 DVA      -0.0493
     50 CD1        41.7406   58.6824   89.4227 C.ar        1 DVA      -0.0685
     51 CD2        42.8405   57.3998   87.6727 C.ar        1 DVA      -0.0685
     52 CE1        40.6974   58.9999   88.5291 C.ar        1 DVA      -0.0398
     53 CE2        41.7857   57.6836   86.7924 C.ar        1 DVA      -0.0398
     54 CZ         40.7145   58.4955   87.2121 C.ar        1 DVA       0.0805
     55 OH         39.7032   58.7784   86.3542 O.3         1 DVA      -0.3376
     56 N          45.1332   54.2061   91.3952 N.am        1 DVA      -0.2620
     57 CA         46.2772   53.3383   91.5385 C.3         1 DVA       0.1423
     58 C          46.6881   52.7054   90.2774 C.2         1 DVA       0.2051
     59 O          46.1781   53.0392   89.2142 O.2         1 DVA      -0.3943
     60 CB         47.4486   53.9477   92.3967 C.3         1 DVA       0.0406
     61 CG         48.6964   54.3221   91.6925 C.2         1 DVA       0.0393
     62 OD1        49.8445   53.6542   91.9281 O.co2       1 DVA      -0.5688
     63 OD2        48.7190   55.2960   90.7511 O.co2       1 DVA      -0.5688
     64 N          47.6286   51.7653   90.3202 N.am        1 DVA      -0.2671
     65 CA         48.2014   51.0457   89.2185 C.3         1 DVA       0.1173
     66 C          49.4580   51.7247   88.8335 C.2         1 DVA       0.0623
     67 O          50.4831   51.8431   89.7085 O.co2       1 DVA      -0.5665
     68 OXT        49.5915   52.2993   87.6156 O.co2       1 DVA      -0.5665
     69 CB         48.4571   49.5684   89.6161 C.3         1 DVA       0.0789
     70 OG         47.2288   48.8978   89.8892 O.3         1 DVA      -0.3910
     71 H1         51.7564   48.7001   77.6274 H           1 DVA       0.2015
     72 H2         51.0173   48.5713   79.0992 H           1 DVA       0.2015
     73 H3         52.6474   48.2601   78.9525 H           1 DVA       0.2015
     74 H4         51.2782   50.7997   78.5861 H           1 DVA       0.1101
     75 H5         53.6026   51.8205   78.4504 H           1 DVA       0.0376
     76 H6         55.5464   50.4370   77.8497 H           1 DVA       0.0236
     77 H7         54.6030   48.9527   78.0613 H           1 DVA       0.0236
     78 H8         54.9590   49.9947   79.4523 H           1 DVA       0.0236
     79 H9         52.2293   51.4818   76.4139 H           1 DVA       0.0236
     80 H10        52.9463   49.8749   76.1849 H           1 DVA       0.0236
     81 H11        53.9565   51.3263   76.0776 H           1 DVA       0.0236
     82 H12        51.7837   53.0345   79.5372 H           1 DVA       0.0802
     83 H13        50.7729   54.6409   81.5347 H           1 DVA       0.0313
     84 H14        52.5079   54.3718   81.2767 H           1 DVA       0.0313
     85 H15        50.6859   52.9851   83.2731 H           1 DVA       0.0287
     86 H16        52.3062   53.6796   83.5502 H           1 DVA       0.0287
     87 H17        53.3836   51.8310   82.5468 H           1 DVA       0.0524
     88 H18        51.8958   50.9957   83.0587 H           1 DVA       0.0524
     89 H19        49.5962   51.0890   81.5030 H           1 DVA       0.1881
     90 H20        47.6459   50.4894   80.0251 H           1 DVA       0.0763
     91 H21        47.2246   52.1962   80.1654 H           1 DVA       0.0763
     92 H22        46.0696   49.5794   81.3761 H           1 DVA       0.1884
     93 H23        46.2798   49.8946   84.1514 H           1 DVA       0.0823
     94 H24        44.7474   48.1058   84.3604 H           1 DVA       0.0606
     95 H25        45.7525   47.7489   82.9507 H           1 DVA       0.0606
     96 H26        44.1004   48.3293   81.6273 H           1 DVA       0.2097
     97 H27        45.7044   52.0627   84.6001 H           1 DVA       0.1883
     98 H28        42.8923   52.8532   84.2243 H           1 DVA       0.0801
     99 H29        45.3204   54.5683   84.9236 H           1 DVA       0.0337
    100 H30        43.7041   55.1524   84.5288 H           1 DVA       0.0337
    101 H31        45.6502   53.7815   82.6060 H           1 DVA       0.0504
    102 H32        45.2848   55.4950   82.6660 H           1 DVA       0.0504
    103 H33        43.4374   53.9343   79.8977 H           1 DVA       0.1814
    104 H34        45.0621   53.8942   80.3215 H           1 DVA       0.1814
    105 H35        42.0458   54.0684   86.0271 H           1 DVA       0.1885
    106 H36        42.2832   52.7414   88.5096 H           1 DVA       0.0817
    107 H37        40.2404   54.0027   87.2553 H           1 DVA       0.0420
    108 H38        40.8054   55.3789   88.1629 H           1 DVA       0.0420
    109 H39        38.1063   53.2238   88.5191 H           1 DVA       0.0729
    110 H40        39.5623   53.0887   92.3532 H           1 DVA       0.1199
    111 H41        37.5878   52.5998   90.8948 H           1 DVA       0.2361
    112 H42        42.0635   55.0408   90.2459 H           1 DVA       0.1885
    113 H43        43.2813   56.2463   91.5820 H           1 DVA       0.0821
    114 H44        44.8649   57.5642   89.3945 H           1 DVA       0.0453
    115 H45        43.9825   58.2792   90.7228 H           1 DVA       0.0453
    116 H46        41.7030   59.0437   90.3796 H           1 DVA       0.0530
    117 H47        43.6106   56.8172   87.3315 H           1 DVA       0.0530
    118 H48        39.9176   59.5883   88.8380 H           1 DVA       0.0525
    119 H49        41.8095   57.3077   85.8380 H           1 DVA       0.0525
    120 H50        39.8921   58.2629   85.5427 H           1 DVA       0.2458
    121 H51        44.2713   53.7738   91.5210 H           1 DVA       0.1884
    122 H52        45.8677   52.5167   92.1407 H           1 DVA       0.0819
    123 H53        47.7296   53.2115   93.1590 H           1 DVA       0.0478
    124 H54        47.0920   54.8229   92.9455 H           1 DVA       0.0478
    125 H55        47.9944   51.5607   91.1974 H           1 DVA       0.1876
    126 H56        47.5365   51.0440   88.3489 H           1 DVA       0.0749
    127 H57        49.0862   49.5117   90.5082 H           1 DVA       0.0599
    128 H58        48.9611   49.0405   88.8014 H           1 DVA       0.0599
    129 H59        47.4852   47.9723   90.0865 H           1 DVA       0.2096
@<TRIPOS>BOND
     1     1     2   1
     2     2     3   1
     3     2     6   1
     4     3     4   1
     5     3     5   1
     6     6     7   2
     7     6     8  am
     8     8     9   1
     9     8    12   1
    10     9    10   1
    11     9    13   1
    12    10    11   1
    13    11    12   1
    14    13    14   2
    15    13    15  am
    16    15    16   1
    17    16    17   1
    18    17    18   2
    19    17    19  am
    20    19    20   1
    21    20    21   1
    22    20    23   1
    23    21    22   2
    24    21    25  am
    25    23    24   1
    26    25    26   1
    27    26    27   1
    28    26    29   1
    29    27    28   2
    30    27    34  am
    31    29    30   1
    32    30    31   1
    33    31    32   2
    34    31    33  am
    35    34    35   1
    36    35    36   1
    37    35    38   1
    38    36    37   2
    39    36    44  am
    40    38    39   1
    41    39    40   1
    42    39    41   2
    43    40    42   2
    44    41    43   1
    45    42    43   1
    46    44    45   1
    47    45    46   1
    48    45    48   1
    49    46    47   2
    50    46    56  am
    51    48    49   1
    52    49    50  ar
    53    49    51  ar
    54    50    52  ar
    55    51    53  ar
    56    52    54  ar
    57    53    54  ar
    58    54    55   1
    59    56    57   1
    60    57    58   1
    61    57    60   1
    62    58    59   2
    63    58    64  am
    64    60    61   1
    65    61    62  ar
    66    61    63  ar
    67    64    65   1
    68    65    66   1
    69    65    69   1
    70    66    67  ar
    71    66    68  ar
    72    69    70   1
    73     1    71   1
    74     1    72   1
    75     1    73   1
    76     2    74   1
    77     3    75   1
    78     4    76   1
    79     4    77   1
    80     4    78   1
    81     5    79   1
    82     5    80   1
    83     5    81   1
    84     9    82   1
    85    10    83   1
    86    10    84   1
    87    11    85   1
    88    11    86   1
    89    12    87   1
    90    12    88   1
    91    15    89   1
    92    16    90   1
    93    16    91   1
    94    19    92   1
    95    20    93   1
    96    23    94   1
    97    23    95   1
    98    24    96   1
    99    25    97   1
   100    26    98   1
   101    29    99   1
   102    29   100   1
   103    30   101   1
   104    30   102   1
   105    33   103   1
   106    33   104   1
   107    34   105   1
   108    35   106   1
   109    38   107   1
   110    38   108   1
   111    41   109   1
   112    42   110   1
   113    43   111   1
   114    44   112   1
   115    45   113   1
   116    48   114   1
   117    48   115   1
   118    50   116   1
   119    51   117   1
   120    52   118   1
   121    53   119   1
   122    55   120   1
   123    56   121   1
   124    57   122   1
   125    60   123   1
   126    60   124   1
   127    64   125   1
   128    65   126   1
   129    69   127   1
   130    69   128   1
   131    70   129   1
@<TRIPOS>SUBSTRUCTURE
     1  DVA      2

