@<TRIPOS>MOLECULE
1zea_ligand_013
   129   131
SMALL
GAST_HUCK
****
This file was generated by PARSER (from files_GN.cpp)

@<TRIPOS>ATOM
      1 N          42.1701   53.0560   95.4998 N.4         1 DVA       0.2381
      2 CA         42.4942   54.3045   94.7826 C.3         1 DVA       0.0675
      3 CB         43.9375   54.2714   94.1521 C.3         1 DVA       0.0139
      4 CG1        45.0690   53.8036   95.1168 C.3         1 DVA      -0.0553
      5 CG2        43.9788   53.4106   92.8548 C.3         1 DVA      -0.0553
      6 C          42.2445   55.4535   95.6685 C.2         1 DVA       0.2295
      7 O          43.0224   55.5702   96.6109 O.2         1 DVA      -0.3905
      8 N          41.2516   56.3571   95.5469 N.am        1 DVA      -0.2471
      9 CA         40.1466   56.2991   94.6141 C.3         1 DVA       0.1339
     10 CB         39.3109   57.5807   94.8777 C.3         1 DVA      -0.0104
     11 CG         40.3014   58.5313   95.5537 C.3         1 DVA      -0.0281
     12 CD         41.2396   57.5757   96.3083 C.3         1 DVA       0.0371
     13 C          39.2836   55.1228   94.6975 C.2         1 DVA       0.2039
     14 O          39.3460   54.3674   95.6626 O.2         1 DVA      -0.3944
     15 N          38.4499   54.8883   93.6947 N.am        1 DVA      -0.2664
     16 CA         37.5872   53.7639   93.5063 C.3         1 DVA       0.1201
     17 C          38.1391   52.8468   92.5185 C.2         1 DVA       0.2008
     18 O          38.0152   51.6407   92.6972 O.2         1 DVA      -0.3947
     19 N          38.7641   53.3243   91.4466 N.am        1 DVA      -0.2618
     20 CA         39.3786   52.5966   90.3701 C.3         1 DVA       0.1539
     21 C          39.7444   53.5696   89.3438 C.2         1 DVA       0.2062
     22 O          38.8701   53.9333   88.5637 O.2         1 DVA      -0.3943
     23 CB         40.5610   51.7018   90.8523 C.3         1 DVA       0.0843
     24 OG         41.3881   51.2878   89.7683 O.3         1 DVA      -0.3903
     25 N          40.9363   54.1659   89.3408 N.am        1 DVA      -0.2635
     26 CA         41.3882   55.2399   88.4986 C.3         1 DVA       0.1330
     27 C          41.3826   54.8519   87.0910 C.2         1 DVA       0.2041
     28 O          40.3539   54.9616   86.4326 O.2         1 DVA      -0.3944
     29 CB         40.6231   56.5630   88.8231 C.3         1 DVA       0.0045
     30 CG         41.1004   57.8139   88.0110 C.3         1 DVA       0.0412
     31 CD         39.9910   58.6355   87.5709 C.2         1 DVA       0.1737
     32 OE1        39.6082   58.5965   86.4090 O.2         1 DVA      -0.3973
     33 NE2        39.2936   59.3406   88.4306 N.am        1 DVA      -0.3009
     34 N          42.4950   54.3918   86.5281 N.am        1 DVA      -0.2625
     35 CA         42.6392   54.0214   85.1466 C.3         1 DVA       0.1369
     36 C          44.0100   53.5593   84.9467 C.2         1 DVA       0.2055
     37 O          44.3168   52.4374   85.3386 O.2         1 DVA      -0.3942
     38 CB         41.5420   52.9846   84.6956 C.3         1 DVA       0.0145
     39 CG         40.6626   53.4950   83.6241 C.2         1 DVA      -0.0027
     40 ND1        40.9906   53.5190   82.3190 N.2         1 DVA      -0.3252
     41 CD2        39.3902   54.0453   83.7552 C.2         1 DVA       0.0291
     42 CE1        39.9567   54.0658   81.6647 C.2         1 DVA       0.0907
     43 NE2        38.9878   54.4003   82.5325 N.pl3       1 DVA      -0.2752
     44 N          44.9343   54.3973   84.4773 N.am        1 DVA      -0.2620
     45 CA         46.3454   54.1575   84.2856 C.3         1 DVA       0.1390
     46 C          47.0716   53.7309   85.4830 C.2         1 DVA       0.2058
     47 O          46.4809   53.4670   86.5241 O.2         1 DVA      -0.3942
     48 CB         46.5680   53.2131   83.0555 C.3         1 DVA       0.0163
     49 CG         46.3037   53.8826   81.7503 C.ar        1 DVA      -0.0493
     50 CD1        47.2515   54.7885   81.2171 C.ar        1 DVA      -0.0685
     51 CD2        45.1260   53.6220   81.0114 C.ar        1 DVA      -0.0685
     52 CE1        47.0369   55.4096   79.9735 C.ar        1 DVA      -0.0398
     53 CE2        44.9067   54.2487   79.7712 C.ar        1 DVA      -0.0398
     54 CZ         45.8617   55.1378   79.2445 C.ar        1 DVA       0.0805
     55 OH         45.6288   55.7276   78.0416 O.3         1 DVA      -0.3376
     56 N          48.3990   53.6557   85.4419 N.am        1 DVA      -0.2620
     57 CA         49.2615   53.1116   86.4587 C.3         1 DVA       0.1423
     58 C          49.0651   51.6707   86.6154 C.2         1 DVA       0.2051
     59 O          48.7792   50.9827   85.6412 O.2         1 DVA      -0.3943
     60 CB         50.7545   53.4143   86.1248 C.3         1 DVA       0.0406
     61 CG         51.0534   54.8567   86.0691 C.2         1 DVA       0.0393
     62 OD1        51.1223   55.5672   87.2177 O.co2       1 DVA      -0.5688
     63 OD2        50.8485   55.5375   84.9192 O.co2       1 DVA      -0.5688
     64 N          49.2325   51.1246   87.8139 N.am        1 DVA      -0.2671
     65 CA         49.0475   49.7567   88.2035 C.3         1 DVA       0.1173
     66 C          47.6303   49.4726   88.5347 C.2         1 DVA       0.0623
     67 O          46.7426   49.0697   87.5963 O.co2       1 DVA      -0.5665
     68 OXT        47.1878   49.6019   89.8068 O.co2       1 DVA      -0.5665
     69 CB         49.6540   48.7424   87.1959 C.3         1 DVA       0.0789
     70 OG         49.7233   47.4365   87.7597 O.3         1 DVA      -0.3910
     71 H1         42.3037   52.2561   94.8769 H           1 DVA       0.2015
     72 H2         41.1953   53.0802   95.8090 H           1 DVA       0.2015
     73 H3         42.7832   52.9523   96.3117 H           1 DVA       0.2015
     74 H4         41.7955   54.3388   93.9472 H           1 DVA       0.1101
     75 H5         44.1871   55.2939   93.8430 H           1 DVA       0.0376
     76 H6         44.9009   52.7767   95.4446 H           1 DVA       0.0236
     77 H7         45.1297   54.4433   95.9954 H           1 DVA       0.0236
     78 H8         46.0374   53.8480   94.6152 H           1 DVA       0.0236
     79 H9         43.6970   52.3780   93.0658 H           1 DVA       0.0236
     80 H10        44.9790   53.4156   92.4186 H           1 DVA       0.0236
     81 H11        43.2916   53.8169   92.1118 H           1 DVA       0.0236
     82 H12        40.5703   56.3632   93.6059 H           1 DVA       0.0802
     83 H13        38.4787   57.3947   95.5706 H           1 DVA       0.0313
     84 H14        38.9158   58.0056   93.9494 H           1 DVA       0.0313
     85 H15        39.8043   59.2331   96.2292 H           1 DVA       0.0287
     86 H16        40.8596   59.0904   94.7942 H           1 DVA       0.0287
     87 H17        42.2319   58.0339   96.3751 H           1 DVA       0.0524
     88 H18        40.8638   57.3775   97.3180 H           1 DVA       0.0524
     89 H19        38.4640   55.5250   92.9615 H           1 DVA       0.1881
     90 H20        36.6342   54.1477   93.1424 H           1 DVA       0.0763
     91 H21        37.3870   53.2449   94.4496 H           1 DVA       0.0763
     92 H22        38.7863   54.2919   91.3718 H           1 DVA       0.1884
     93 H23        38.6170   51.9309   89.9530 H           1 DVA       0.0823
     94 H24        40.1819   50.7985   91.3375 H           1 DVA       0.0606
     95 H25        41.1739   52.2420   91.5778 H           1 DVA       0.0606
     96 H26        42.1121   50.7702   90.1824 H           1 DVA       0.2097
     97 H27        41.5764   53.8522   89.9984 H           1 DVA       0.1883
     98 H28        42.4326   55.4290   88.7833 H           1 DVA       0.0801
     99 H29        40.7478   56.7791   89.8905 H           1 DVA       0.0337
    100 H30        39.5525   56.3932   88.6638 H           1 DVA       0.0337
    101 H31        41.6847   57.5023   87.1412 H           1 DVA       0.0504
    102 H32        41.7711   58.4221   88.6239 H           1 DVA       0.0504
    103 H33        38.4988   59.8157   88.1392 H           1 DVA       0.1814
    104 H34        39.5489   59.3634   89.3679 H           1 DVA       0.1814
    105 H35        43.2863   54.3452   87.0839 H           1 DVA       0.1885
    106 H36        42.5165   54.9452   84.5659 H           1 DVA       0.0817
    107 H37        40.9213   52.7046   85.5498 H           1 DVA       0.0420
    108 H38        41.9860   52.0543   84.3295 H           1 DVA       0.0420
    109 H39        38.8633   54.1781   84.6231 H           1 DVA       0.0729
    110 H40        39.9120   54.1928   80.6575 H           1 DVA       0.1199
    111 H41        38.1412   54.8177   82.3089 H           1 DVA       0.2361
    112 H42        44.6266   55.2907   84.2502 H           1 DVA       0.1885
    113 H43        46.7706   55.1346   84.0387 H           1 DVA       0.0821
    114 H44        45.9428   52.3200   83.1635 H           1 DVA       0.0453
    115 H45        47.6000   52.8473   83.0229 H           1 DVA       0.0453
    116 H46        48.1149   54.9927   81.7255 H           1 DVA       0.0530
    117 H47        44.4219   52.9746   81.3714 H           1 DVA       0.0530
    118 H48        47.7356   56.0565   79.6006 H           1 DVA       0.0525
    119 H49        44.0508   54.0506   79.2472 H           1 DVA       0.0525
    120 H50        46.4867   55.7276   77.5650 H           1 DVA       0.2458
    121 H51        48.8273   53.9403   84.6191 H           1 DVA       0.1884
    122 H52        49.0207   53.6090   87.4062 H           1 DVA       0.0819
    123 H53        51.0173   52.9599   85.1648 H           1 DVA       0.0478
    124 H54        51.4087   52.9734   86.8834 H           1 DVA       0.0478
    125 H55        49.5076   51.7277   88.5228 H           1 DVA       0.1876
    126 H56        49.6196   49.6488   89.1285 H           1 DVA       0.0749
    127 H57        50.6659   49.0508   86.9273 H           1 DVA       0.0599
    128 H58        49.0587   48.6870   86.2832 H           1 DVA       0.0599
    129 H59        48.8139   47.2433   88.0566 H           1 DVA       0.2096
@<TRIPOS>BOND
     1     1     2   1
     2     2     3   1
     3     2     6   1
     4     3     4   1
     5     3     5   1
     6     6     7   2
     7     6     8  am
     8     8     9   1
     9     8    12   1
    10     9    10   1
    11     9    13   1
    12    10    11   1
    13    11    12   1
    14    13    14   2
    15    13    15  am
    16    15    16   1
    17    16    17   1
    18    17    18   2
    19    17    19  am
    20    19    20   1
    21    20    21   1
    22    20    23   1
    23    21    22   2
    24    21    25  am
    25    23    24   1
    26    25    26   1
    27    26    27   1
    28    26    29   1
    29    27    28   2
    30    27    34  am
    31    29    30   1
    32    30    31   1
    33    31    32   2
    34    31    33  am
    35    34    35   1
    36    35    36   1
    37    35    38   1
    38    36    37   2
    39    36    44  am
    40    38    39   1
    41    39    40   1
    42    39    41   2
    43    40    42   2
    44    41    43   1
    45    42    43   1
    46    44    45   1
    47    45    46   1
    48    45    48   1
    49    46    47   2
    50    46    56  am
    51    48    49   1
    52    49    50  ar
    53    49    51  ar
    54    50    52  ar
    55    51    53  ar
    56    52    54  ar
    57    53    54  ar
    58    54    55   1
    59    56    57   1
    60    57    58   1
    61    57    60   1
    62    58    59   2
    63    58    64  am
    64    60    61   1
    65    61    62  ar
    66    61    63  ar
    67    64    65   1
    68    65    66   1
    69    65    69   1
    70    66    67  ar
    71    66    68  ar
    72    69    70   1
    73     1    71   1
    74     1    72   1
    75     1    73   1
    76     2    74   1
    77     3    75   1
    78     4    76   1
    79     4    77   1
    80     4    78   1
    81     5    79   1
    82     5    80   1
    83     5    81   1
    84     9    82   1
    85    10    83   1
    86    10    84   1
    87    11    85   1
    88    11    86   1
    89    12    87   1
    90    12    88   1
    91    15    89   1
    92    16    90   1
    93    16    91   1
    94    19    92   1
    95    20    93   1
    96    23    94   1
    97    23    95   1
    98    24    96   1
    99    25    97   1
   100    26    98   1
   101    29    99   1
   102    29   100   1
   103    30   101   1
   104    30   102   1
   105    33   103   1
   106    33   104   1
   107    34   105   1
   108    35   106   1
   109    38   107   1
   110    38   108   1
   111    41   109   1
   112    42   110   1
   113    43   111   1
   114    44   112   1
   115    45   113   1
   116    48   114   1
   117    48   115   1
   118    50   116   1
   119    51   117   1
   120    52   118   1
   121    53   119   1
   122    55   120   1
   123    56   121   1
   124    57   122   1
   125    60   123   1
   126    60   124   1
   127    64   125   1
   128    65   126   1
   129    69   127   1
   130    69   128   1
   131    70   129   1
@<TRIPOS>SUBSTRUCTURE
     1  DVA      2

