@<TRIPOS>MOLECULE
1zea_ligand_067
   129   131
SMALL
GAST_HUCK
****
This file was generated by PARSER (from files_GN.cpp)

@<TRIPOS>ATOM
      1 N          51.7052   51.7756   81.8859 N.4         1 DVA       0.2381
      2 CA         51.8191   51.4376   80.4527 C.3         1 DVA       0.0675
      3 CB         52.8153   50.2396   80.2498 C.3         1 DVA       0.0139
      4 CG1        52.3827   49.2805   79.1050 C.3         1 DVA      -0.0553
      5 CG2        54.3026   50.6545   80.0539 C.3         1 DVA      -0.0553
      6 C          52.1206   52.6515   79.6824 C.2         1 DVA       0.2295
      7 O          53.0176   53.3533   80.1411 O.2         1 DVA      -0.3905
      8 N          51.5064   53.0630   78.5591 N.am        1 DVA      -0.2471
      9 CA         50.4939   52.3431   77.8202 C.3         1 DVA       0.1339
     10 CB         50.4463   53.0428   76.4395 C.3         1 DVA      -0.0104
     11 CG         50.9094   54.4735   76.7258 C.3         1 DVA      -0.0281
     12 CD         51.8748   54.2931   77.9058 C.3         1 DVA       0.0371
     13 C          49.1897   52.3389   78.4817 C.2         1 DVA       0.2039
     14 O          48.6352   53.4084   78.6926 O.2         1 DVA      -0.3944
     15 N          48.5998   51.1854   78.7898 N.am        1 DVA      -0.2664
     16 CA         47.2900   51.0239   79.3375 C.3         1 DVA       0.1201
     17 C          47.2072   51.1586   80.7833 C.2         1 DVA       0.2008
     18 O          47.7852   52.0944   81.3235 O.2         1 DVA      -0.3947
     19 N          46.3916   50.3695   81.4738 N.am        1 DVA      -0.2618
     20 CA         46.0657   50.4562   82.8710 C.3         1 DVA       0.1539
     21 C          44.6610   50.8239   83.0192 C.2         1 DVA       0.2062
     22 O          43.7869   50.1039   82.5477 O.2         1 DVA      -0.3943
     23 CB         46.3771   49.1193   83.5955 C.3         1 DVA       0.0843
     24 OG         45.3972   48.1147   83.3586 O.3         1 DVA      -0.3903
     25 N          44.3392   51.9220   83.6861 N.am        1 DVA      -0.2635
     26 CA         43.0186   52.3488   84.0561 C.3         1 DVA       0.1330
     27 C          43.1419   52.9165   85.3907 C.2         1 DVA       0.2041
     28 O          43.4740   54.0885   85.5128 O.2         1 DVA      -0.3944
     29 CB         42.4318   53.2857   82.9593 C.3         1 DVA       0.0045
     30 CG         40.9680   53.7630   83.2172 C.3         1 DVA       0.0412
     31 CD         40.1079   53.7077   82.0455 C.2         1 DVA       0.1737
     32 OE1        38.9284   53.3977   82.1459 O.2         1 DVA      -0.3973
     33 NE2        40.5610   53.9813   80.8431 N.am        1 DVA      -0.3009
     34 N          43.0651   52.1006   86.4373 N.am        1 DVA      -0.2625
     35 CA         43.3383   52.4100   87.8042 C.3         1 DVA       0.1369
     36 C          42.0487   52.6423   88.4482 C.2         1 DVA       0.2055
     37 O          41.5560   51.8088   89.2015 O.2         1 DVA      -0.3942
     38 CB         44.2015   51.2785   88.4345 C.3         1 DVA       0.0145
     39 CG         44.6242   51.5645   89.8199 C.2         1 DVA      -0.0027
     40 ND1        43.8078   51.8960   90.8334 N.2         1 DVA      -0.3252
     41 CD2        45.9257   51.5496   90.3213 C.2         1 DVA       0.0291
     42 CE1        44.5741   52.0837   91.9246 C.2         1 DVA       0.0907
     43 NE2        45.8612   51.8813   91.6154 N.pl3       1 DVA      -0.2752
     44 N          41.4534   53.8125   88.2290 N.am        1 DVA      -0.2620
     45 CA         40.2139   54.2991   88.7544 C.3         1 DVA       0.1390
     46 C          39.8966   53.9142   90.1228 C.2         1 DVA       0.2058
     47 O          38.7257   53.6304   90.3897 O.2         1 DVA      -0.3942
     48 CB         40.1737   55.8524   88.5940 C.3         1 DVA       0.0163
     49 CG         41.1134   56.7058   89.3884 C.ar        1 DVA      -0.0493
     50 CD1        42.4532   56.3304   89.6790 C.ar        1 DVA      -0.0685
     51 CD2        40.6764   57.9836   89.8211 C.ar        1 DVA      -0.0685
     52 CE1        43.3114   57.1840   90.3944 C.ar        1 DVA      -0.0398
     53 CE2        41.5417   58.8468   90.5273 C.ar        1 DVA      -0.0398
     54 CZ         42.8625   58.4495   90.8168 C.ar        1 DVA       0.0805
     55 OH         43.6953   59.3007   91.4758 O.3         1 DVA      -0.3376
     56 N          40.8489   53.8366   91.0516 N.am        1 DVA      -0.2620
     57 CA         40.7115   53.4335   92.4247 C.3         1 DVA       0.1423
     58 C          40.0586   54.4217   93.3021 C.2         1 DVA       0.2051
     59 O          39.5300   54.0499   94.3489 O.2         1 DVA      -0.3943
     60 CB         40.1819   51.9579   92.5472 C.3         1 DVA       0.0406
     61 CG         38.7203   51.7906   92.5886 C.2         1 DVA       0.0393
     62 OD1        38.0324   51.3188   91.5137 O.co2       1 DVA      -0.5688
     63 OD2        38.0401   51.9676   93.7454 O.co2       1 DVA      -0.5688
     64 N          40.1521   55.7257   93.0300 N.am        1 DVA      -0.2671
     65 CA         39.6217   56.7962   93.8190 C.3         1 DVA       0.1173
     66 C          40.3554   56.9598   95.0989 C.2         1 DVA       0.0623
     67 O          41.6879   56.7151   95.1847 O.co2       1 DVA      -0.5665
     68 OXT        39.7652   57.5824   96.1468 O.co2       1 DVA      -0.5665
     69 CB         39.6496   58.1016   92.9906 C.3         1 DVA       0.0789
     70 OG         38.6999   59.0533   93.4642 O.3         1 DVA      -0.3910
     71 H1         51.1996   51.0351   82.3743 H           1 DVA       0.2015
     72 H2         51.1879   52.6529   81.9956 H           1 DVA       0.2015
     73 H3         52.6355   51.8799   82.2972 H           1 DVA       0.2015
     74 H4         50.8246   51.0752   80.1998 H           1 DVA       0.1101
     75 H5         52.7785   49.6399   81.1667 H           1 DVA       0.0376
     76 H6         53.0124   48.3886   79.1003 H           1 DVA       0.0236
     77 H7         52.4742   49.7719   78.1367 H           1 DVA       0.0236
     78 H8         51.3492   48.9556   79.2441 H           1 DVA       0.0236
     79 H9         54.6368   51.2800   80.8834 H           1 DVA       0.0236
     80 H10        54.4325   51.2073   79.1228 H           1 DVA       0.0236
     81 H11        54.9424   49.7733   80.0110 H           1 DVA       0.0236
     82 H12        50.8260   51.3170   77.6463 H           1 DVA       0.0802
     83 H13        49.4572   53.0355   75.9777 H           1 DVA       0.0313
     84 H14        51.1507   52.5647   75.7531 H           1 DVA       0.0313
     85 H15        50.0555   55.0928   77.0240 H           1 DVA       0.0287
     86 H16        51.3968   54.9260   75.8590 H           1 DVA       0.0287
     87 H17        52.9039   54.2278   77.5404 H           1 DVA       0.0524
     88 H18        51.7894   55.1459   78.5865 H           1 DVA       0.0524
     89 H19        49.0713   50.3691   78.5611 H           1 DVA       0.1881
     90 H20        46.9489   50.0302   79.0353 H           1 DVA       0.0763
     91 H21        46.6109   51.7482   78.8825 H           1 DVA       0.0763
     92 H22        45.9145   49.6941   80.9717 H           1 DVA       0.1884
     93 H23        46.6933   51.2104   83.3599 H           1 DVA       0.0823
     94 H24        46.4297   49.2888   84.6752 H           1 DVA       0.0606
     95 H25        47.3464   48.7361   83.2670 H           1 DVA       0.0606
     96 H26        45.3501   48.0118   82.3859 H           1 DVA       0.2097
     97 H27        45.0733   52.4609   84.0237 H           1 DVA       0.1883
     98 H28        42.3448   51.4770   84.1076 H           1 DVA       0.0801
     99 H29        42.4784   52.7344   82.0154 H           1 DVA       0.0337
    100 H30        43.0762   54.1635   82.8454 H           1 DVA       0.0337
    101 H31        40.9914   54.7992   83.5703 H           1 DVA       0.0504
    102 H32        40.5172   53.1639   84.0164 H           1 DVA       0.0504
    103 H33        39.9688   53.9108   80.0787 H           1 DVA       0.1814
    104 H34        41.4960   54.2063   80.7145 H           1 DVA       0.1814
    105 H35        42.8106   51.1890   86.2601 H           1 DVA       0.1885
    106 H36        43.9407   53.3309   87.8770 H           1 DVA       0.0817
    107 H37        45.0893   51.1391   87.8169 H           1 DVA       0.0420
    108 H38        43.6498   50.3362   88.4241 H           1 DVA       0.0420
    109 H39        46.7802   51.3358   89.8004 H           1 DVA       0.0729
    110 H40        44.2236   52.3473   92.8487 H           1 DVA       0.1199
    111 H41        46.6118   51.9659   92.2187 H           1 DVA       0.2361
    112 H42        41.9260   54.4037   87.6241 H           1 DVA       0.1885
    113 H43        39.4326   53.8787   88.1022 H           1 DVA       0.0821
    114 H44        39.1456   56.1629   88.8022 H           1 DVA       0.0453
    115 H45        40.3549   56.0956   87.5447 H           1 DVA       0.0453
    116 H46        42.8333   55.4453   89.3568 H           1 DVA       0.0530
    117 H47        39.7334   58.3147   89.6121 H           1 DVA       0.0530
    118 H48        44.2750   56.8928   90.5760 H           1 DVA       0.0525
    119 H49        41.2102   59.7703   90.8342 H           1 DVA       0.0525
    120 H50        43.9078   58.8567   92.3276 H           1 DVA       0.2458
    121 H51        41.7447   54.0731   90.7883 H           1 DVA       0.1884
    122 H52        41.7390   53.3963   92.8040 H           1 DVA       0.0819
    123 H53        40.6070   51.5113   93.4584 H           1 DVA       0.0478
    124 H54        40.5772   51.3674   91.7139 H           1 DVA       0.0478
    125 H55        40.5926   55.9648   92.2032 H           1 DVA       0.1876
    126 H56        38.5807   56.5698   94.0511 H           1 DVA       0.0749
    127 H57        39.4033   57.8832   91.9533 H           1 DVA       0.0599
    128 H58        40.6409   58.5537   93.0190 H           1 DVA       0.0599
    129 H59        38.3872   59.5225   92.6620 H           1 DVA       0.2096
@<TRIPOS>BOND
     1     1     2   1
     2     2     3   1
     3     2     6   1
     4     3     4   1
     5     3     5   1
     6     6     7   2
     7     6     8  am
     8     8     9   1
     9     8    12   1
    10     9    10   1
    11     9    13   1
    12    10    11   1
    13    11    12   1
    14    13    14   2
    15    13    15  am
    16    15    16   1
    17    16    17   1
    18    17    18   2
    19    17    19  am
    20    19    20   1
    21    20    21   1
    22    20    23   1
    23    21    22   2
    24    21    25  am
    25    23    24   1
    26    25    26   1
    27    26    27   1
    28    26    29   1
    29    27    28   2
    30    27    34  am
    31    29    30   1
    32    30    31   1
    33    31    32   2
    34    31    33  am
    35    34    35   1
    36    35    36   1
    37    35    38   1
    38    36    37   2
    39    36    44  am
    40    38    39   1
    41    39    40   1
    42    39    41   2
    43    40    42   2
    44    41    43   1
    45    42    43   1
    46    44    45   1
    47    45    46   1
    48    45    48   1
    49    46    47   2
    50    46    56  am
    51    48    49   1
    52    49    50  ar
    53    49    51  ar
    54    50    52  ar
    55    51    53  ar
    56    52    54  ar
    57    53    54  ar
    58    54    55   1
    59    56    57   1
    60    57    58   1
    61    57    60   1
    62    58    59   2
    63    58    64  am
    64    60    61   1
    65    61    62  ar
    66    61    63  ar
    67    64    65   1
    68    65    66   1
    69    65    69   1
    70    66    67  ar
    71    66    68  ar
    72    69    70   1
    73     1    71   1
    74     1    72   1
    75     1    73   1
    76     2    74   1
    77     3    75   1
    78     4    76   1
    79     4    77   1
    80     4    78   1
    81     5    79   1
    82     5    80   1
    83     5    81   1
    84     9    82   1
    85    10    83   1
    86    10    84   1
    87    11    85   1
    88    11    86   1
    89    12    87   1
    90    12    88   1
    91    15    89   1
    92    16    90   1
    93    16    91   1
    94    19    92   1
    95    20    93   1
    96    23    94   1
    97    23    95   1
    98    24    96   1
    99    25    97   1
   100    26    98   1
   101    29    99   1
   102    29   100   1
   103    30   101   1
   104    30   102   1
   105    33   103   1
   106    33   104   1
   107    34   105   1
   108    35   106   1
   109    38   107   1
   110    38   108   1
   111    41   109   1
   112    42   110   1
   113    43   111   1
   114    44   112   1
   115    45   113   1
   116    48   114   1
   117    48   115   1
   118    50   116   1
   119    51   117   1
   120    52   118   1
   121    53   119   1
   122    55   120   1
   123    56   121   1
   124    57   122   1
   125    60   123   1
   126    60   124   1
   127    64   125   1
   128    65   126   1
   129    69   127   1
   130    69   128   1
   131    70   129   1
@<TRIPOS>SUBSTRUCTURE
     1  DVA      2

