@<TRIPOS>MOLECULE
1zea_ligand_027
   129   131
SMALL
GAST_HUCK
****
This file was generated by PARSER (from files_GN.cpp)

@<TRIPOS>ATOM
      1 N          52.5514   55.7813   78.1493 N.4         1 DVA       0.2381
      2 CA         53.2088   54.4814   77.9163 C.3         1 DVA       0.0675
      3 CB         54.7640   54.6229   77.7231 C.3         1 DVA       0.0139
      4 CG1        55.2055   55.7072   76.6943 C.3         1 DVA      -0.0553
      5 CG2        55.4909   54.8731   79.0753 C.3         1 DVA      -0.0553
      6 C          52.5292   53.7778   76.8197 C.2         1 DVA       0.2295
      7 O          52.5889   54.3396   75.7204 O.2         1 DVA      -0.3905
      8 N          51.8807   52.6051   76.8961 N.am        1 DVA      -0.2471
      9 CA         51.5612   51.8693   78.1065 C.3         1 DVA       0.1339
     10 CB         50.8639   50.5679   77.6319 C.3         1 DVA      -0.0104
     11 CG         51.3216   50.4232   76.1792 C.3         1 DVA      -0.0281
     12 CD         51.4859   51.8762   75.7176 C.3         1 DVA       0.0371
     13 C          50.7164   52.5755   79.0665 C.2         1 DVA       0.2039
     14 O          49.6069   52.9679   78.7051 O.2         1 DVA      -0.3944
     15 N          51.1228   52.7405   80.3191 N.am        1 DVA      -0.2664
     16 CA         50.4275   53.4242   81.3663 C.3         1 DVA       0.1201
     17 C          49.0434   53.0008   81.5271 C.2         1 DVA       0.2008
     18 O          48.1528   53.7867   81.2487 O.2         1 DVA      -0.3947
     19 N          48.7860   51.7899   82.0090 N.am        1 DVA      -0.2618
     20 CA         47.5042   51.1607   82.2400 C.3         1 DVA       0.1539
     21 C          46.8318   51.5677   83.4708 C.2         1 DVA       0.2062
     22 O          47.2817   52.4796   84.1538 O.2         1 DVA      -0.3943
     23 CB         46.5778   51.2448   80.9883 C.3         1 DVA       0.0843
     24 OG         45.3031   50.6468   81.2281 O.3         1 DVA      -0.3903
     25 N          45.7390   50.9072   83.8506 N.am        1 DVA      -0.2635
     26 CA         44.8980   51.1332   84.9931 C.3         1 DVA       0.1330
     27 C          43.5087   51.3307   84.5841 C.2         1 DVA       0.2041
     28 O          43.0330   50.6811   83.6596 O.2         1 DVA      -0.3944
     29 CB         45.0263   49.9658   86.0256 C.3         1 DVA       0.0045
     30 CG         45.0692   48.5059   85.4872 C.3         1 DVA       0.0412
     31 CD         43.9693   48.0871   84.6376 C.2         1 DVA       0.1737
     32 OE1        44.1665   47.4452   83.6109 O.2         1 DVA      -0.3973
     33 NE2        42.7259   48.3595   84.9451 N.am        1 DVA      -0.3009
     34 N          42.7679   52.2140   85.2429 N.am        1 DVA      -0.2625
     35 CA         41.3786   52.5351   85.0354 C.3         1 DVA       0.1369
     36 C          40.9872   53.4617   86.1046 C.2         1 DVA       0.2055
     37 O          40.6610   54.6092   85.8442 O.2         1 DVA      -0.3942
     38 CB         41.0425   53.0202   83.5733 C.3         1 DVA       0.0145
     39 CG         42.1557   53.6005   82.7884 C.2         1 DVA      -0.0027
     40 ND1        42.3629   53.3723   81.4830 N.2         1 DVA      -0.3252
     41 CD2        43.2151   54.3922   83.2449 C.2         1 DVA       0.0291
     42 CE1        43.5115   53.9879   81.1318 C.2         1 DVA       0.0907
     43 NE2        44.0307   54.5892   82.2136 N.pl3       1 DVA      -0.2752
     44 N          40.9702   53.0379   87.3739 N.am        1 DVA      -0.2620
     45 CA         40.6392   53.8419   88.5307 C.3         1 DVA       0.1390
     46 C          40.5941   53.0447   89.7601 C.2         1 DVA       0.2058
     47 O          41.3426   52.0731   89.8474 O.2         1 DVA      -0.3942
     48 CB         41.6092   55.0713   88.7138 C.3         1 DVA       0.0163
     49 CG         40.9167   56.3898   88.6673 C.ar        1 DVA      -0.0493
     50 CD1        40.9076   57.1717   87.4933 C.ar        1 DVA      -0.0685
     51 CD2        40.2627   56.8972   89.8213 C.ar        1 DVA      -0.0685
     52 CE1        40.2634   58.4238   87.4584 C.ar        1 DVA      -0.0398
     53 CE2        39.6342   58.1494   89.7952 C.ar        1 DVA      -0.0398
     54 CZ         39.6330   58.9249   88.6147 C.ar        1 DVA       0.0805
     55 OH         39.0591   60.1501   88.5719 O.3         1 DVA      -0.3376
     56 N          39.8890   53.4769   90.7954 N.am        1 DVA      -0.2620
     57 CA         39.8709   53.0310   92.1725 C.3         1 DVA       0.1423
     58 C          39.5011   51.6326   92.3796 C.2         1 DVA       0.2051
     59 O          39.8830   50.7787   91.5744 O.2         1 DVA      -0.3943
     60 CB         41.1359   53.4823   92.9829 C.3         1 DVA       0.0406
     61 CG         42.3844   52.7776   92.6817 C.2         1 DVA       0.0393
     62 OD1        43.2004   53.2305   91.6925 O.co2       1 DVA      -0.5688
     63 OD2        42.8189   51.7462   93.4519 O.co2       1 DVA      -0.5688
     64 N          38.6942   51.2906   93.3822 N.am        1 DVA      -0.2671
     65 CA         38.2508   49.9691   93.7525 C.3         1 DVA       0.1173
     66 C          37.2731   50.1160   94.8556 C.2         1 DVA       0.0623
     67 O          36.0288   50.6017   94.6312 O.co2       1 DVA      -0.5665
     68 OXT        37.6012   49.7674   96.1234 O.co2       1 DVA      -0.5665
     69 CB         37.6658   49.1548   92.5594 C.3         1 DVA       0.0789
     70 OG         36.5803   48.2894   92.9178 O.3         1 DVA      -0.3910
     71 H1         52.9931   56.2554   78.9399 H           1 DVA       0.2015
     72 H2         51.5600   55.6352   78.3591 H           1 DVA       0.2015
     73 H3         52.6348   56.3667   77.3144 H           1 DVA       0.2015
     74 H4         53.0590   53.9229   78.8395 H           1 DVA       0.1101
     75 H5         55.1363   53.6618   77.3532 H           1 DVA       0.0376
     76 H6         56.2932   55.7277   76.6089 H           1 DVA       0.0236
     77 H7         54.8680   56.6975   77.0046 H           1 DVA       0.0236
     78 H8         54.8087   55.4967   75.7027 H           1 DVA       0.0236
     79 H9         55.2718   54.0716   79.7833 H           1 DVA       0.0236
     80 H10        55.1784   55.8219   79.5149 H           1 DVA       0.0236
     81 H11        56.5723   54.9004   78.9300 H           1 DVA       0.0236
     82 H12        52.5109   51.5890   78.5780 H           1 DVA       0.0802
     83 H13        49.7724   50.6516   77.6518 H           1 DVA       0.0313
     84 H14        51.1607   49.7041   78.2311 H           1 DVA       0.0313
     85 H15        50.5972   49.8850   75.5647 H           1 DVA       0.0287
     86 H16        52.2845   49.9022   76.1404 H           1 DVA       0.0287
     87 H17        52.2399   51.9123   74.9250 H           1 DVA       0.0524
     88 H18        50.5426   52.2755   75.3345 H           1 DVA       0.0524
     89 H19        52.0018   52.3890   80.5417 H           1 DVA       0.1881
     90 H20        50.4865   54.4998   81.1729 H           1 DVA       0.0763
     91 H21        50.9547   53.2303   82.3021 H           1 DVA       0.0763
     92 H22        49.5566   51.2502   82.2447 H           1 DVA       0.1884
     93 H23        47.7515   50.1025   82.3690 H           1 DVA       0.0823
     94 H24        47.0450   50.7289   80.1383 H           1 DVA       0.0606
     95 H25        46.4100   52.2867   80.7087 H           1 DVA       0.0606
     96 H26        45.4396   49.6875   81.0891 H           1 DVA       0.2097
     97 H27        45.4728   50.1762   83.2738 H           1 DVA       0.1883
     98 H28        45.2258   52.0437   85.5138 H           1 DVA       0.0801
     99 H29        44.2300   50.0439   86.7724 H           1 DVA       0.0337
    100 H30        45.9630   50.1179   86.5762 H           1 DVA       0.0337
    101 H31        45.0862   47.8335   86.3489 H           1 DVA       0.0504
    102 H32        46.0130   48.3671   84.9533 H           1 DVA       0.0504
    103 H33        42.0019   48.0857   84.3533 H           1 DVA       0.1814
    104 H34        42.5255   48.9285   85.7055 H           1 DVA       0.1814
    105 H35        43.2146   52.6965   85.9567 H           1 DVA       0.1885
    106 H36        40.8010   51.6223   85.2078 H           1 DVA       0.0817
    107 H37        40.2197   53.7395   83.5731 H           1 DVA       0.0420
    108 H38        40.6745   52.1578   83.0108 H           1 DVA       0.0420
    109 H39        43.3654   54.7075   84.2025 H           1 DVA       0.0729
    110 H40        43.9258   53.9773   80.2043 H           1 DVA       0.1199
    111 H41        44.8789   55.0695   82.2353 H           1 DVA       0.2361
    112 H42        41.1929   52.1011   87.5189 H           1 DVA       0.1885
    113 H43        39.6157   54.1929   88.3472 H           1 DVA       0.0821
    114 H44        42.3841   55.0407   87.9435 H           1 DVA       0.0453
    115 H45        42.1598   55.0178   89.6583 H           1 DVA       0.0453
    116 H46        41.3728   56.8407   86.6383 H           1 DVA       0.0530
    117 H47        40.2619   56.3604   90.6886 H           1 DVA       0.0530
    118 H48        40.2589   58.9713   86.5968 H           1 DVA       0.0525
    119 H49        39.1830   58.5073   90.6403 H           1 DVA       0.0525
    120 H50        38.6717   60.3001   89.4589 H           1 DVA       0.2458
    121 H51        39.3367   54.2627   90.6263 H           1 DVA       0.1884
    122 H52        39.0637   53.6297   92.5955 H           1 DVA       0.0819
    123 H53        40.9340   53.3722   94.0562 H           1 DVA       0.0478
    124 H54        41.2902   54.5502   92.8010 H           1 DVA       0.0478
    125 H55        38.4081   52.0161   93.9679 H           1 DVA       0.1876
    126 H56        39.1175   49.4302   94.1390 H           1 DVA       0.0749
    127 H57        38.4397   48.5256   92.1336 H           1 DVA       0.0599
    128 H58        37.3069   49.8227   91.7779 H           1 DVA       0.0599
    129 H59        35.7768   48.7997   92.6425 H           1 DVA       0.2096
@<TRIPOS>BOND
     1     1     2   1
     2     2     3   1
     3     2     6   1
     4     3     4   1
     5     3     5   1
     6     6     7   2
     7     6     8  am
     8     8     9   1
     9     8    12   1
    10     9    10   1
    11     9    13   1
    12    10    11   1
    13    11    12   1
    14    13    14   2
    15    13    15  am
    16    15    16   1
    17    16    17   1
    18    17    18   2
    19    17    19  am
    20    19    20   1
    21    20    21   1
    22    20    23   1
    23    21    22   2
    24    21    25  am
    25    23    24   1
    26    25    26   1
    27    26    27   1
    28    26    29   1
    29    27    28   2
    30    27    34  am
    31    29    30   1
    32    30    31   1
    33    31    32   2
    34    31    33  am
    35    34    35   1
    36    35    36   1
    37    35    38   1
    38    36    37   2
    39    36    44  am
    40    38    39   1
    41    39    40   1
    42    39    41   2
    43    40    42   2
    44    41    43   1
    45    42    43   1
    46    44    45   1
    47    45    46   1
    48    45    48   1
    49    46    47   2
    50    46    56  am
    51    48    49   1
    52    49    50  ar
    53    49    51  ar
    54    50    52  ar
    55    51    53  ar
    56    52    54  ar
    57    53    54  ar
    58    54    55   1
    59    56    57   1
    60    57    58   1
    61    57    60   1
    62    58    59   2
    63    58    64  am
    64    60    61   1
    65    61    62  ar
    66    61    63  ar
    67    64    65   1
    68    65    66   1
    69    65    69   1
    70    66    67  ar
    71    66    68  ar
    72    69    70   1
    73     1    71   1
    74     1    72   1
    75     1    73   1
    76     2    74   1
    77     3    75   1
    78     4    76   1
    79     4    77   1
    80     4    78   1
    81     5    79   1
    82     5    80   1
    83     5    81   1
    84     9    82   1
    85    10    83   1
    86    10    84   1
    87    11    85   1
    88    11    86   1
    89    12    87   1
    90    12    88   1
    91    15    89   1
    92    16    90   1
    93    16    91   1
    94    19    92   1
    95    20    93   1
    96    23    94   1
    97    23    95   1
    98    24    96   1
    99    25    97   1
   100    26    98   1
   101    29    99   1
   102    29   100   1
   103    30   101   1
   104    30   102   1
   105    33   103   1
   106    33   104   1
   107    34   105   1
   108    35   106   1
   109    38   107   1
   110    38   108   1
   111    41   109   1
   112    42   110   1
   113    43   111   1
   114    44   112   1
   115    45   113   1
   116    48   114   1
   117    48   115   1
   118    50   116   1
   119    51   117   1
   120    52   118   1
   121    53   119   1
   122    55   120   1
   123    56   121   1
   124    57   122   1
   125    60   123   1
   126    60   124   1
   127    64   125   1
   128    65   126   1
   129    69   127   1
   130    69   128   1
   131    70   129   1
@<TRIPOS>SUBSTRUCTURE
     1  DVA      2

