@<TRIPOS>MOLECULE
1zea_ligand_015
   129   131
SMALL
GAST_HUCK
****
This file was generated by PARSER (from files_GN.cpp)

@<TRIPOS>ATOM
      1 N          50.9506   49.9139   77.1432 N.4         1 DVA       0.2381
      2 CA         51.7748   51.0217   77.6615 C.3         1 DVA       0.0675
      3 CB         52.9721   51.3734   76.6998 C.3         1 DVA       0.0139
      4 CG1        53.8747   50.1668   76.3079 C.3         1 DVA      -0.0553
      5 CG2        52.4769   52.0926   75.4119 C.3         1 DVA      -0.0553
      6 C          52.1852   50.7335   79.0404 C.2         1 DVA       0.2295
      7 O          52.7860   49.6764   79.2053 O.2         1 DVA      -0.3905
      8 N          51.9519   51.5109   80.1196 N.am        1 DVA      -0.2471
      9 CA         51.2085   52.7469   80.1373 C.3         1 DVA       0.1339
     10 CB         51.5261   53.3938   81.5096 C.3         1 DVA      -0.0104
     11 CG         51.8938   52.2094   82.4074 C.3         1 DVA      -0.0281
     12 CD         52.4645   51.1762   81.4201 C.3         1 DVA       0.0371
     13 C          49.7734   52.5432   79.9323 C.2         1 DVA       0.2039
     14 O          49.2106   53.2341   79.0936 O.2         1 DVA      -0.3944
     15 N          49.1003   51.6301   80.6335 N.am        1 DVA      -0.2664
     16 CA         47.6997   51.3384   80.5407 C.3         1 DVA       0.1201
     17 C          47.1344   51.1270   81.8595 C.2         1 DVA       0.2008
     18 O          47.4950   51.8748   82.7633 O.2         1 DVA      -0.3947
     19 N          46.2385   50.1702   82.0839 N.am        1 DVA      -0.2618
     20 CA         45.5840   49.8914   83.3316 C.3         1 DVA       0.1539
     21 C          44.4580   50.7894   83.5611 C.2         1 DVA       0.2062
     22 O          43.3832   50.5595   83.0088 O.2         1 DVA      -0.3943
     23 CB         45.1707   48.3999   83.4146 C.3         1 DVA       0.0843
     24 OG         43.9437   48.1281   82.7385 O.3         1 DVA      -0.3903
     25 N          44.6590   51.9262   84.2242 N.am        1 DVA      -0.2635
     26 CA         43.6949   52.9530   84.5035 C.3         1 DVA       0.1330
     27 C          43.6640   53.1841   85.9450 C.2         1 DVA       0.2041
     28 O          44.7076   53.4448   86.5388 O.2         1 DVA      -0.3944
     29 CB         44.0555   54.2516   83.7159 C.3         1 DVA       0.0045
     30 CG         43.8873   54.1462   82.1670 C.3         1 DVA       0.0412
     31 CD         42.5341   54.1621   81.6383 C.2         1 DVA       0.1737
     32 OE1        41.5602   54.4378   82.3281 O.2         1 DVA      -0.3973
     33 NE2        42.3215   53.9027   80.3638 N.am        1 DVA      -0.3009
     34 N          42.5017   53.1545   86.5898 N.am        1 DVA      -0.2625
     35 CA         42.2813   53.3297   88.0042 C.3         1 DVA       0.1369
     36 C          42.9082   54.5365   88.5404 C.2         1 DVA       0.2055
     37 O          43.4938   55.3023   87.7771 O.2         1 DVA      -0.3942
     38 CB         40.7376   53.3268   88.2357 C.3         1 DVA       0.0145
     39 CG         40.2434   52.8417   89.5456 C.2         1 DVA      -0.0027
     40 ND1        40.9277   52.1492   90.4676 N.2         1 DVA      -0.3252
     41 CD2        38.9259   52.9348   89.9854 C.2         1 DVA       0.0291
     42 CE1        40.0725   51.8335   91.4579 C.2         1 DVA       0.0907
     43 NE2        38.8511   52.3063   91.1663 N.pl3       1 DVA      -0.2752
     44 N          42.9046   54.7683   89.8528 N.am        1 DVA      -0.2620
     45 CA         43.5130   55.8633   90.5760 C.3         1 DVA       0.1390
     46 C          44.8543   56.2543   90.1090 C.2         1 DVA       0.2058
     47 O          45.2245   57.4178   90.1914 O.2         1 DVA      -0.3942
     48 CB         42.4816   57.0176   90.8381 C.3         1 DVA       0.0163
     49 CG         41.7018   57.5034   89.6611 C.ar        1 DVA      -0.0493
     50 CD1        40.2901   57.6263   89.7321 C.ar        1 DVA      -0.0685
     51 CD2        42.3380   57.8122   88.4344 C.ar        1 DVA      -0.0685
     52 CE1        39.5376   58.0036   88.6071 C.ar        1 DVA      -0.0398
     53 CE2        41.5754   58.1208   87.2910 C.ar        1 DVA      -0.0398
     54 CZ         40.1749   58.2242   87.3673 C.ar        1 DVA       0.0805
     55 OH         39.4437   58.5503   86.2714 O.3         1 DVA      -0.3376
     56 N          45.6942   55.3221   89.6741 N.am        1 DVA      -0.2620
     57 CA         47.0583   55.4632   89.2269 C.3         1 DVA       0.1423
     58 C          47.1634   56.4832   88.1846 C.2         1 DVA       0.2051
     59 O          47.6019   57.5933   88.4603 O.2         1 DVA      -0.3943
     60 CB         48.0246   55.6226   90.4379 C.3         1 DVA       0.0406
     61 CG         49.4518   55.5311   90.0593 C.2         1 DVA       0.0393
     62 OD1        49.9381   54.4260   89.4617 O.co2       1 DVA      -0.5688
     63 OD2        50.2712   56.6024   90.1957 O.co2       1 DVA      -0.5688
     64 N          46.7407   56.2071   86.9549 N.am        1 DVA      -0.2671
     65 CA         46.6723   57.0826   85.8102 C.3         1 DVA       0.1173
     66 C          45.6604   58.1485   85.9976 C.2         1 DVA       0.0623
     67 O          45.3752   58.6446   87.2230 O.co2       1 DVA      -0.5665
     68 OXT        45.0478   58.7132   84.9259 O.co2       1 DVA      -0.5665
     69 CB         48.0486   57.6557   85.3746 C.3         1 DVA       0.0789
     70 OG         47.9720   58.2573   84.0851 O.3         1 DVA      -0.3910
     71 H1         50.5951   50.1532   76.2158 H           1 DVA       0.2015
     72 H2         50.1652   49.7354   77.7746 H           1 DVA       0.2015
     73 H3         51.5076   49.0636   77.0706 H           1 DVA       0.2015
     74 H4         51.1076   51.8802   77.6543 H           1 DVA       0.1101
     75 H5         53.6112   52.0922   77.2217 H           1 DVA       0.0376
     76 H6         54.6939   50.4989   75.6656 H           1 DVA       0.0236
     77 H7         53.3031   49.4091   75.7673 H           1 DVA       0.0236
     78 H8         54.3208   49.7050   77.1880 H           1 DVA       0.0236
     79 H9         51.9199   52.9962   75.6689 H           1 DVA       0.0236
     80 H10        51.8278   51.4383   74.8252 H           1 DVA       0.0236
     81 H11        53.3239   52.3904   74.7888 H           1 DVA       0.0236
     82 H12        51.6099   53.4227   79.3700 H           1 DVA       0.0802
     83 H13        50.6921   53.9712   81.9217 H           1 DVA       0.0313
     84 H14        52.3916   54.0565   81.4172 H           1 DVA       0.0313
     85 H15        50.9950   51.8205   82.8932 H           1 DVA       0.0287
     86 H16        52.6213   52.4903   83.1729 H           1 DVA       0.0287
     87 H17        53.5581   51.2324   81.4095 H           1 DVA       0.0524
     88 H18        52.1585   50.1704   81.7239 H           1 DVA       0.0524
     89 H19        49.6093   51.1052   81.2718 H           1 DVA       0.1881
     90 H20        47.5907   50.4434   79.9228 H           1 DVA       0.0763
     91 H21        47.1367   52.1482   80.0658 H           1 DVA       0.0763
     92 H22        46.0087   49.6036   81.3362 H           1 DVA       0.1884
     93 H23        46.3417   50.0391   84.1057 H           1 DVA       0.0823
     94 H24        45.0551   48.1110   84.4627 H           1 DVA       0.0606
     95 H25        45.9532   47.7827   82.9732 H           1 DVA       0.0606
     96 H26        44.1562   48.1710   81.7916 H           1 DVA       0.2097
     97 H27        45.5632   52.0798   84.5547 H           1 DVA       0.1883
     98 H28        42.6936   52.6476   84.1851 H           1 DVA       0.0801
     99 H29        45.0955   54.5130   83.9232 H           1 DVA       0.0337
    100 H30        43.4413   55.0820   84.0725 H           1 DVA       0.0337
    101 H31        44.3676   53.2247   81.8355 H           1 DVA       0.0504
    102 H32        44.4313   54.9745   81.7013 H           1 DVA       0.0504
    103 H33        41.4158   53.8940   80.0135 H           1 DVA       0.1814
    104 H34        43.0686   53.6952   79.7771 H           1 DVA       0.1814
    105 H35        41.7227   52.9564   86.0521 H           1 DVA       0.1885
    106 H36        42.7160   52.4546   88.5009 H           1 DVA       0.0817
    107 H37        40.2715   52.6676   87.5030 H           1 DVA       0.0420
    108 H38        40.3387   54.3279   88.0581 H           1 DVA       0.0420
    109 H39        38.1429   53.3752   89.4910 H           1 DVA       0.0729
    110 H40        40.3066   51.2938   92.2895 H           1 DVA       0.1199
    111 H41        38.0470   52.1954   91.7043 H           1 DVA       0.2361
    112 H42        42.4562   54.1069   90.4060 H           1 DVA       0.1885
    113 H43        43.7249   55.4436   91.5589 H           1 DVA       0.0821
    114 H44        42.9729   57.8802   91.2958 H           1 DVA       0.0453
    115 H45        41.7869   56.6480   91.5962 H           1 DVA       0.0453
    116 H46        39.7943   57.4297   90.6067 H           1 DVA       0.0530
    117 H47        43.3586   57.7619   88.3491 H           1 DVA       0.0530
    118 H48        38.5228   58.0952   88.6787 H           1 DVA       0.0525
    119 H49        42.0452   58.2492   86.3920 H           1 DVA       0.0525
    120 H50        39.9347   58.1682   85.5120 H           1 DVA       0.2458
    121 H51        45.3578   54.4141   89.6595 H           1 DVA       0.1884
    122 H52        47.3108   54.5043   88.7621 H           1 DVA       0.0819
    123 H53        47.8251   54.8279   91.1571 H           1 DVA       0.0478
    124 H54        47.8386   56.5716   90.9395 H           1 DVA       0.0478
    125 H55        46.4281   55.3025   86.7985 H           1 DVA       0.1876
    126 H56        46.3298   56.4535   84.9837 H           1 DVA       0.0749
    127 H57        48.7848   56.8518   85.3316 H           1 DVA       0.0599
    128 H58        48.4025   58.4108   86.0778 H           1 DVA       0.0599
    129 H59        48.8825   58.5667   83.8961 H           1 DVA       0.2096
@<TRIPOS>BOND
     1     1     2   1
     2     2     3   1
     3     2     6   1
     4     3     4   1
     5     3     5   1
     6     6     7   2
     7     6     8  am
     8     8     9   1
     9     8    12   1
    10     9    10   1
    11     9    13   1
    12    10    11   1
    13    11    12   1
    14    13    14   2
    15    13    15  am
    16    15    16   1
    17    16    17   1
    18    17    18   2
    19    17    19  am
    20    19    20   1
    21    20    21   1
    22    20    23   1
    23    21    22   2
    24    21    25  am
    25    23    24   1
    26    25    26   1
    27    26    27   1
    28    26    29   1
    29    27    28   2
    30    27    34  am
    31    29    30   1
    32    30    31   1
    33    31    32   2
    34    31    33  am
    35    34    35   1
    36    35    36   1
    37    35    38   1
    38    36    37   2
    39    36    44  am
    40    38    39   1
    41    39    40   1
    42    39    41   2
    43    40    42   2
    44    41    43   1
    45    42    43   1
    46    44    45   1
    47    45    46   1
    48    45    48   1
    49    46    47   2
    50    46    56  am
    51    48    49   1
    52    49    50  ar
    53    49    51  ar
    54    50    52  ar
    55    51    53  ar
    56    52    54  ar
    57    53    54  ar
    58    54    55   1
    59    56    57   1
    60    57    58   1
    61    57    60   1
    62    58    59   2
    63    58    64  am
    64    60    61   1
    65    61    62  ar
    66    61    63  ar
    67    64    65   1
    68    65    66   1
    69    65    69   1
    70    66    67  ar
    71    66    68  ar
    72    69    70   1
    73     1    71   1
    74     1    72   1
    75     1    73   1
    76     2    74   1
    77     3    75   1
    78     4    76   1
    79     4    77   1
    80     4    78   1
    81     5    79   1
    82     5    80   1
    83     5    81   1
    84     9    82   1
    85    10    83   1
    86    10    84   1
    87    11    85   1
    88    11    86   1
    89    12    87   1
    90    12    88   1
    91    15    89   1
    92    16    90   1
    93    16    91   1
    94    19    92   1
    95    20    93   1
    96    23    94   1
    97    23    95   1
    98    24    96   1
    99    25    97   1
   100    26    98   1
   101    29    99   1
   102    29   100   1
   103    30   101   1
   104    30   102   1
   105    33   103   1
   106    33   104   1
   107    34   105   1
   108    35   106   1
   109    38   107   1
   110    38   108   1
   111    41   109   1
   112    42   110   1
   113    43   111   1
   114    44   112   1
   115    45   113   1
   116    48   114   1
   117    48   115   1
   118    50   116   1
   119    51   117   1
   120    52   118   1
   121    53   119   1
   122    55   120   1
   123    56   121   1
   124    57   122   1
   125    60   123   1
   126    60   124   1
   127    64   125   1
   128    65   126   1
   129    69   127   1
   130    69   128   1
   131    70   129   1
@<TRIPOS>SUBSTRUCTURE
     1  DVA      2

