@<TRIPOS>MOLECULE
1zea_ligand_003
   129   131
SMALL
GAST_HUCK
****
This file was generated by PARSER (from files_GN.cpp)

@<TRIPOS>ATOM
      1 N          51.9390   49.3745   78.3552 N.4         1 DVA       0.2381
      2 CA         52.1320   50.8012   78.0323 C.3         1 DVA       0.0675
      3 CB         53.3357   51.0374   77.0476 C.3         1 DVA       0.0139
      4 CG1        54.6689   50.3632   77.4867 C.3         1 DVA      -0.0553
      5 CG2        52.9860   50.6073   75.5929 C.3         1 DVA      -0.0553
      6 C          52.2294   51.5897   79.2697 C.2         1 DVA       0.2295
      7 O          53.0957   51.2279   80.0592 O.2         1 DVA      -0.3905
      8 N          51.4803   52.6628   79.5936 N.am        1 DVA      -0.2471
      9 CA         50.3855   53.1957   78.8210 C.3         1 DVA       0.1339
     10 CB         50.1258   54.6068   79.4060 C.3         1 DVA      -0.0104
     11 CG         50.6566   54.5377   80.8427 C.3         1 DVA      -0.0281
     12 CD         51.7249   53.4313   80.7863 C.3         1 DVA       0.0371
     13 C          49.2091   52.3236   78.8824 C.2         1 DVA       0.2039
     14 O          48.8406   51.7477   77.8659 O.2         1 DVA      -0.3944
     15 N          48.5895   52.1326   80.0404 N.am        1 DVA      -0.2664
     16 CA         47.4410   51.3046   80.2715 C.3         1 DVA       0.1201
     17 C          47.1557   51.0862   81.6838 C.2         1 DVA       0.2008
     18 O          47.6728   51.7911   82.5421 O.2         1 DVA      -0.3947
     19 N          46.3468   50.0901   82.0240 N.am        1 DVA      -0.2618
     20 CA         46.0378   49.6572   83.3598 C.3         1 DVA       0.1539
     21 C          45.3775   50.6889   84.1575 C.2         1 DVA       0.2062
     22 O          45.8453   50.9476   85.2579 O.2         1 DVA      -0.3943
     23 CB         45.1928   48.3554   83.3178 C.3         1 DVA       0.0843
     24 OG         43.9458   48.4815   82.6360 O.3         1 DVA      -0.3903
     25 N          44.2817   51.2765   83.6919 N.am        1 DVA      -0.2635
     26 CA         43.3836   52.2480   84.2739 C.3         1 DVA       0.1330
     27 C          43.7570   52.7837   85.5861 C.2         1 DVA       0.2041
     28 O          44.6725   53.5933   85.6605 O.2         1 DVA      -0.3944
     29 CB         43.1454   53.3416   83.1832 C.3         1 DVA       0.0045
     30 CG         42.0227   54.3833   83.4533 C.3         1 DVA       0.0412
     31 CD         40.7654   53.8078   83.8960 C.2         1 DVA       0.1737
     32 OE1        40.3443   52.7737   83.3968 O.2         1 DVA      -0.3973
     33 NE2        40.0292   54.3870   84.8202 N.am        1 DVA      -0.3009
     34 N          43.2094   52.2680   86.6861 N.am        1 DVA      -0.2625
     35 CA         43.5432   52.5764   88.0535 C.3         1 DVA       0.1369
     36 C          42.4657   53.4102   88.5855 C.2         1 DVA       0.2055
     37 O          42.4790   54.5854   88.2488 O.2         1 DVA      -0.3942
     38 CB         43.8520   51.2548   88.8296 C.3         1 DVA       0.0145
     39 CG         44.4235   51.4410   90.1855 C.2         1 DVA      -0.0027
     40 ND1        45.5026   50.7831   90.6526 N.2         1 DVA      -0.3252
     41 CD2        43.9464   52.2369   91.2234 C.2         1 DVA       0.0291
     42 CE1        45.6914   51.1630   91.9261 C.2         1 DVA       0.0907
     43 NE2        44.7421   52.0367   92.2776 N.pl3       1 DVA      -0.2752
     44 N          41.4862   52.9240   89.3464 N.am        1 DVA      -0.2620
     45 CA         40.3213   53.6095   89.8554 C.3         1 DVA       0.1390
     46 C          39.4945   52.6468   90.5851 C.2         1 DVA       0.2058
     47 O          38.3774   52.3814   90.1555 O.2         1 DVA      -0.3942
     48 CB         40.6247   54.8821   90.7391 C.3         1 DVA       0.0163
     49 CG         40.2673   56.2361   90.1993 C.ar        1 DVA      -0.0493
     50 CD1        40.2042   57.3394   91.0902 C.ar        1 DVA      -0.0685
     51 CD2        40.0398   56.4984   88.8232 C.ar        1 DVA      -0.0685
     52 CE1        39.8831   58.6303   90.6343 C.ar        1 DVA      -0.0398
     53 CE2        39.7065   57.7834   88.3624 C.ar        1 DVA      -0.0398
     54 CZ         39.6151   58.8482   89.2724 C.ar        1 DVA       0.0805
     55 OH         39.2307   60.0691   88.8395 O.3         1 DVA      -0.3376
     56 N          39.9115   52.1549   91.7504 N.am        1 DVA      -0.2620
     57 CA         39.1977   51.3243   92.6908 C.3         1 DVA       0.1423
     58 C          38.3078   52.1029   93.5552 C.2         1 DVA       0.2051
     59 O          37.5381   52.9178   93.0610 O.2         1 DVA      -0.3943
     60 CB         38.4747   50.1252   92.0026 C.3         1 DVA       0.0406
     61 CG         38.0497   48.9944   92.8468 C.2         1 DVA       0.0393
     62 OD1        38.1474   49.0059   94.1981 O.co2       1 DVA      -0.5688
     63 OD2        37.6840   47.8421   92.2421 O.co2       1 DVA      -0.5688
     64 N          38.2685   51.8684   94.8644 N.am        1 DVA      -0.2671
     65 CA         37.4882   52.5654   95.8547 C.3         1 DVA       0.1173
     66 C          36.0215   52.3743   95.7202 C.2         1 DVA       0.0623
     67 O          35.4766   51.7080   94.6804 O.co2       1 DVA      -0.5665
     68 OXT        35.1923   52.8235   96.6928 O.co2       1 DVA      -0.5665
     69 CB         37.9310   52.1330   97.2776 C.3         1 DVA       0.0789
     70 OG         39.3302   52.3195   97.4640 O.3         1 DVA      -0.3910
     71 H1         51.8815   48.8334   77.4936 H           1 DVA       0.2015
     72 H2         51.0675   49.2407   78.8769 H           1 DVA       0.2015
     73 H3         52.7294   49.0351   78.9077 H           1 DVA       0.2015
     74 H4         51.2277   51.0773   77.4947 H           1 DVA       0.1101
     75 H5         53.5211   52.1170   77.0064 H           1 DVA       0.0376
     76 H6         55.4639   50.5945   76.7750 H           1 DVA       0.0236
     77 H7         54.5561   49.2789   77.5365 H           1 DVA       0.0236
     78 H8         54.9906   50.7272   78.4617 H           1 DVA       0.0236
     79 H9         52.1032   51.1430   75.2379 H           1 DVA       0.0236
     80 H10        52.7881   49.5353   75.5420 H           1 DVA       0.0236
     81 H11        53.8108   50.8409   74.9164 H           1 DVA       0.0236
     82 H12        50.6982   53.3368   77.7800 H           1 DVA       0.0802
     83 H13        49.0715   54.8998   79.3792 H           1 DVA       0.0313
     84 H14        50.7023   55.3511   78.8497 H           1 DVA       0.0313
     85 H15        49.8522   54.2599   81.5303 H           1 DVA       0.0287
     86 H16        51.0777   55.4941   81.1629 H           1 DVA       0.0287
     87 H17        52.7220   53.8792   80.7414 H           1 DVA       0.0524
     88 H18        51.6558   52.8024   81.6787 H           1 DVA       0.0524
     89 H19        48.9575   52.5869   80.8140 H           1 DVA       0.1881
     90 H20        47.6186   50.3351   79.7935 H           1 DVA       0.0763
     91 H21        46.5643   51.7660   79.8071 H           1 DVA       0.0763
     92 H22        46.0018   49.5450   81.2989 H           1 DVA       0.1884
     93 H23        46.9865   49.3745   83.8343 H           1 DVA       0.0823
     94 H24        44.9902   48.0131   84.3374 H           1 DVA       0.0606
     95 H25        45.7630   47.5744   82.8129 H           1 DVA       0.0606
     96 H26        44.1807   48.5853   81.6926 H           1 DVA       0.2097
     97 H27        44.0453   51.0120   82.7875 H           1 DVA       0.1883
     98 H28        42.4321   51.7157   84.3924 H           1 DVA       0.0801
     99 H29        42.9094   52.8437   82.2357 H           1 DVA       0.0337
    100 H30        44.0774   53.8899   83.0252 H           1 DVA       0.0337
    101 H31        41.8281   54.9228   82.5243 H           1 DVA       0.0504
    102 H32        42.3822   55.1166   84.1801 H           1 DVA       0.0504
    103 H33        39.2319   53.9422   85.1531 H           1 DVA       0.1814
    104 H34        40.3037   55.2336   85.2095 H           1 DVA       0.1814
    105 H35        42.5134   51.6029   86.5569 H           1 DVA       0.1885
    106 H36        44.4789   53.1519   88.0790 H           1 DVA       0.0817
    107 H37        44.5775   50.6829   88.2432 H           1 DVA       0.0420
    108 H38        42.9566   50.6305   88.9106 H           1 DVA       0.0420
    109 H39        43.1317   52.8513   91.2054 H           1 DVA       0.0729
    110 H40        46.4361   50.8234   92.5343 H           1 DVA       0.1199
    111 H41        44.6430   52.4492   93.1486 H           1 DVA       0.2361
    112 H42        41.5432   51.9797   89.5670 H           1 DVA       0.1885
    113 H43        39.7502   53.9079   88.9724 H           1 DVA       0.0821
    114 H44        41.6872   54.9016   90.9851 H           1 DVA       0.0453
    115 H45        40.1183   54.7770   91.7071 H           1 DVA       0.0453
    116 H46        40.3855   57.2077   92.0865 H           1 DVA       0.0530
    117 H47        40.1056   55.7611   88.1239 H           1 DVA       0.0530
    118 H48        39.8355   59.4097   91.2983 H           1 DVA       0.0525
    119 H49        39.5220   57.9435   87.3691 H           1 DVA       0.0525
    120 H50        38.3827   59.8974   88.3833 H           1 DVA       0.2458
    121 H51        40.8167   52.3950   92.0085 H           1 DVA       0.1884
    122 H52        39.9906   50.8981   93.3145 H           1 DVA       0.0819
    123 H53        39.1546   49.7028   91.2609 H           1 DVA       0.0478
    124 H54        37.5870   50.4818   91.4785 H           1 DVA       0.0478
    125 H55        38.8620   51.1749   95.1933 H           1 DVA       0.1876
    126 H56        37.7004   53.6332   95.7485 H           1 DVA       0.0749
    127 H57        37.6962   51.0784   97.4445 H           1 DVA       0.0599
    128 H58        37.4109   52.7281   98.0343 H           1 DVA       0.0599
    129 H59        39.5093   52.0098   98.3771 H           1 DVA       0.2096
@<TRIPOS>BOND
     1     1     2   1
     2     2     3   1
     3     2     6   1
     4     3     4   1
     5     3     5   1
     6     6     7   2
     7     6     8  am
     8     8     9   1
     9     8    12   1
    10     9    10   1
    11     9    13   1
    12    10    11   1
    13    11    12   1
    14    13    14   2
    15    13    15  am
    16    15    16   1
    17    16    17   1
    18    17    18   2
    19    17    19  am
    20    19    20   1
    21    20    21   1
    22    20    23   1
    23    21    22   2
    24    21    25  am
    25    23    24   1
    26    25    26   1
    27    26    27   1
    28    26    29   1
    29    27    28   2
    30    27    34  am
    31    29    30   1
    32    30    31   1
    33    31    32   2
    34    31    33  am
    35    34    35   1
    36    35    36   1
    37    35    38   1
    38    36    37   2
    39    36    44  am
    40    38    39   1
    41    39    40   1
    42    39    41   2
    43    40    42   2
    44    41    43   1
    45    42    43   1
    46    44    45   1
    47    45    46   1
    48    45    48   1
    49    46    47   2
    50    46    56  am
    51    48    49   1
    52    49    50  ar
    53    49    51  ar
    54    50    52  ar
    55    51    53  ar
    56    52    54  ar
    57    53    54  ar
    58    54    55   1
    59    56    57   1
    60    57    58   1
    61    57    60   1
    62    58    59   2
    63    58    64  am
    64    60    61   1
    65    61    62  ar
    66    61    63  ar
    67    64    65   1
    68    65    66   1
    69    65    69   1
    70    66    67  ar
    71    66    68  ar
    72    69    70   1
    73     1    71   1
    74     1    72   1
    75     1    73   1
    76     2    74   1
    77     3    75   1
    78     4    76   1
    79     4    77   1
    80     4    78   1
    81     5    79   1
    82     5    80   1
    83     5    81   1
    84     9    82   1
    85    10    83   1
    86    10    84   1
    87    11    85   1
    88    11    86   1
    89    12    87   1
    90    12    88   1
    91    15    89   1
    92    16    90   1
    93    16    91   1
    94    19    92   1
    95    20    93   1
    96    23    94   1
    97    23    95   1
    98    24    96   1
    99    25    97   1
   100    26    98   1
   101    29    99   1
   102    29   100   1
   103    30   101   1
   104    30   102   1
   105    33   103   1
   106    33   104   1
   107    34   105   1
   108    35   106   1
   109    38   107   1
   110    38   108   1
   111    41   109   1
   112    42   110   1
   113    43   111   1
   114    44   112   1
   115    45   113   1
   116    48   114   1
   117    48   115   1
   118    50   116   1
   119    51   117   1
   120    52   118   1
   121    53   119   1
   122    55   120   1
   123    56   121   1
   124    57   122   1
   125    60   123   1
   126    60   124   1
   127    64   125   1
   128    65   126   1
   129    69   127   1
   130    69   128   1
   131    70   129   1
@<TRIPOS>SUBSTRUCTURE
     1  DVA      2

