@<TRIPOS>MOLECULE
1zea_ligand_078
   129   131
SMALL
GAST_HUCK
****
This file was generated by PARSER (from files_GN.cpp)

@<TRIPOS>ATOM
      1 N          44.3630   49.3349   86.3774 N.4         1 DVA       0.2381
      2 CA         45.1015   50.2965   85.5389 C.3         1 DVA       0.0675
      3 CB         44.6168   50.2736   84.0384 C.3         1 DVA       0.0139
      4 CG1        44.4947   48.8563   83.4062 C.3         1 DVA      -0.0553
      5 CG2        43.2613   51.0170   83.8621 C.3         1 DVA      -0.0553
      6 C          46.5459   50.1029   85.7283 C.2         1 DVA       0.2295
      7 O          47.0352   49.1400   85.1498 O.2         1 DVA      -0.3905
      8 N          47.3582   50.8475   86.5059 N.am        1 DVA      -0.2471
      9 CA         46.9589   51.8553   87.4638 C.3         1 DVA       0.1339
     10 CB         48.2720   52.3986   88.0911 C.3         1 DVA      -0.0104
     11 CG         49.3533   51.9903   87.0915 C.3         1 DVA      -0.0281
     12 CD         48.7851   50.7173   86.4481 C.3         1 DVA       0.0371
     13 C          46.0565   51.3397   88.4908 C.2         1 DVA       0.2039
     14 O          46.4440   50.4152   89.2040 O.2         1 DVA      -0.3944
     15 N          44.8196   51.8212   88.6194 N.am        1 DVA      -0.2664
     16 CA         43.8317   51.3498   89.5436 C.3         1 DVA       0.1201
     17 C          42.9535   52.4162   89.9893 C.2         1 DVA       0.2008
     18 O          43.4437   53.5084   90.3005 O.2         1 DVA      -0.3947
     19 N          41.6495   52.1863   90.1564 N.am        1 DVA      -0.2618
     20 CA         40.6811   53.0821   90.7309 C.3         1 DVA       0.1539
     21 C          40.5821   54.3275   89.9649 C.2         1 DVA       0.2062
     22 O          39.6050   54.5873   89.2764 O.2         1 DVA      -0.3943
     23 CB         39.3317   52.3159   90.8736 C.3         1 DVA       0.0843
     24 OG         38.4491   52.9637   91.7879 O.3         1 DVA      -0.3903
     25 N          41.6257   55.1526   90.0136 N.am        1 DVA      -0.2635
     26 CA         41.8059   56.4016   89.3181 C.3         1 DVA       0.1330
     27 C          41.5911   56.2119   87.8833 C.2         1 DVA       0.2041
     28 O          40.5359   56.5527   87.3644 O.2         1 DVA      -0.3944
     29 CB         41.0311   57.5608   90.0099 C.3         1 DVA       0.0045
     30 CG         41.2180   58.9670   89.3378 C.3         1 DVA       0.0412
     31 CD         40.1548   59.3217   88.4197 C.2         1 DVA       0.1737
     32 OE1        40.2511   59.0848   87.2179 O.2         1 DVA      -0.3973
     33 NE2        39.0234   59.8158   88.8590 N.am        1 DVA      -0.3009
     34 N          42.5358   55.5981   87.1903 N.am        1 DVA      -0.2625
     35 CA         42.5743   55.4238   85.7663 C.3         1 DVA       0.1369
     36 C          43.9441   55.0204   85.4605 C.2         1 DVA       0.2055
     37 O          44.2776   53.8645   85.6920 O.2         1 DVA      -0.3942
     38 CB         41.4878   54.4222   85.2625 C.3         1 DVA       0.0145
     39 CG         41.3422   54.3680   83.7899 C.2         1 DVA      -0.0027
     40 ND1        42.3459   54.3209   82.8922 N.2         1 DVA      -0.3252
     41 CD2        40.1485   54.2815   83.0814 C.2         1 DVA       0.0291
     42 CE1        41.7925   54.2191   81.6759 C.2         1 DVA       0.0907
     43 NE2        40.4533   54.1874   81.7856 N.pl3       1 DVA      -0.2752
     44 N          44.8565   55.9292   85.1284 N.am        1 DVA      -0.2620
     45 CA         46.2705   55.7180   84.9476 C.3         1 DVA       0.1390
     46 C          46.7587   56.3237   83.7172 C.2         1 DVA       0.2058
     47 O          47.6026   55.7036   83.0643 O.2         1 DVA      -0.3942
     48 CB         47.0756   56.2067   86.1932 C.3         1 DVA       0.0163
     49 CG         46.6795   57.5445   86.7167 C.ar        1 DVA      -0.0493
     50 CD1        45.7024   57.6538   87.7288 C.ar        1 DVA      -0.0685
     51 CD2        47.2636   58.7304   86.2034 C.ar        1 DVA      -0.0685
     52 CE1        45.3071   58.9112   88.2160 C.ar        1 DVA      -0.0398
     53 CE2        46.8694   59.9884   86.6955 C.ar        1 DVA      -0.0398
     54 CZ         45.8889   60.0870   87.6954 C.ar        1 DVA       0.0805
     55 OH         45.5196   61.3171   88.1459 O.3         1 DVA      -0.3376
     56 N          46.3601   57.5301   83.3052 N.am        1 DVA      -0.2620
     57 CA         46.8754   58.2652   82.1849 C.3         1 DVA       0.1423
     58 C          46.7720   57.4542   80.9759 C.2         1 DVA       0.2051
     59 O          45.6652   57.0328   80.6155 O.2         1 DVA      -0.3943
     60 CB         46.1498   59.6292   81.9778 C.3         1 DVA       0.0406
     61 CG         45.9460   60.3854   83.2277 C.2         1 DVA       0.0393
     62 OD1        44.9152   60.0828   84.0488 O.co2       1 DVA      -0.5688
     63 OD2        46.6607   61.5037   83.4731 O.co2       1 DVA      -0.5688
     64 N          47.8864   57.1058   80.3258 N.am        1 DVA      -0.2671
     65 CA         48.0640   56.2597   79.1765 C.3         1 DVA       0.1173
     66 C          48.6815   55.0111   79.6657 C.2         1 DVA       0.0623
     67 O          47.9517   54.1258   80.3901 O.co2       1 DVA      -0.5665
     68 OXT        50.0386   54.8598   79.6654 O.co2       1 DVA      -0.5665
     69 CB         46.8384   55.9406   78.2700 C.3         1 DVA       0.0789
     70 OG         45.8348   56.9572   78.3584 O.3         1 DVA      -0.3910
     71 H1         43.3575   49.5118   86.3105 H           1 DVA       0.2015
     72 H2         44.6523   49.4484   87.3501 H           1 DVA       0.2015
     73 H3         44.5639   48.3794   86.0781 H           1 DVA       0.2015
     74 H4         44.8417   51.2801   85.9312 H           1 DVA       0.1101
     75 H5         45.3469   50.8300   83.4445 H           1 DVA       0.0376
     76 H6         43.7626   48.2504   83.9455 H           1 DVA       0.0236
     77 H7         45.4485   48.3291   83.4116 H           1 DVA       0.0236
     78 H8         44.1723   48.9307   82.3635 H           1 DVA       0.0236
     79 H9         42.4639   50.5172   84.4166 H           1 DVA       0.0236
     80 H10        42.9794   51.0650   82.8070 H           1 DVA       0.0236
     81 H11        43.3467   52.0417   84.2227 H           1 DVA       0.0236
     82 H12        46.4885   52.6812   86.9227 H           1 DVA       0.0802
     83 H13        48.4952   51.9481   89.0625 H           1 DVA       0.0313
     84 H14        48.2429   53.4840   88.2162 H           1 DVA       0.0313
     85 H15        50.3160   51.8080   87.5753 H           1 DVA       0.0287
     86 H16        49.4744   52.7712   86.3349 H           1 DVA       0.0287
     87 H17        49.1533   50.6488   85.4189 H           1 DVA       0.0524
     88 H18        49.0992   49.8267   87.0000 H           1 DVA       0.0524
     89 H19        44.5392   52.5098   87.9941 H           1 DVA       0.1881
     90 H20        44.2958   50.9348   90.4449 H           1 DVA       0.0763
     91 H21        43.2613   50.5569   89.0505 H           1 DVA       0.0763
     92 H22        41.3361   51.2824   89.9625 H           1 DVA       0.1884
     93 H23        40.9828   53.3322   91.7529 H           1 DVA       0.0823
     94 H24        39.5263   51.3114   91.2578 H           1 DVA       0.0606
     95 H25        38.8337   52.2211   89.9030 H           1 DVA       0.0606
     96 H26        38.2657   53.8473   91.4016 H           1 DVA       0.2097
     97 H27        42.3654   54.8803   90.5734 H           1 DVA       0.1883
     98 H28        42.8684   56.6347   89.4481 H           1 DVA       0.0801
     99 H29        41.4002   57.6352   91.0350 H           1 DVA       0.0337
    100 H30        39.9674   57.3058   90.0788 H           1 DVA       0.0337
    101 H31        42.1851   59.0042   88.8225 H           1 DVA       0.0504
    102 H32        41.2569   59.7312   90.1163 H           1 DVA       0.0504
    103 H33        38.3011   59.9848   88.2446 H           1 DVA       0.1814
    104 H34        38.9083   60.0066   89.8017 H           1 DVA       0.1814
    105 H35        43.3234   55.3269   87.6860 H           1 DVA       0.1885
    106 H36        42.3790   56.4039   85.3148 H           1 DVA       0.0817
    107 H37        40.5192   54.6942   85.6827 H           1 DVA       0.0420
    108 H38        41.7111   53.4180   85.6223 H           1 DVA       0.0420
    109 H39        39.2021   54.2659   83.4761 H           1 DVA       0.0729
    110 H40        42.3086   54.1618   80.7956 H           1 DVA       0.1199
    111 H41        39.8268   54.0980   81.0512 H           1 DVA       0.2361
    112 H42        44.5522   56.8474   85.0999 H           1 DVA       0.1885
    113 H43        46.4556   54.6422   84.8582 H           1 DVA       0.0821
    114 H44        48.1509   56.2042   85.9674 H           1 DVA       0.0453
    115 H45        46.9470   55.4609   86.9843 H           1 DVA       0.0453
    116 H46        45.2654   56.8165   88.1186 H           1 DVA       0.0530
    117 H47        47.9753   58.6831   85.4742 H           1 DVA       0.0530
    118 H48        44.6002   58.9721   88.9502 H           1 DVA       0.0525
    119 H49        47.2962   60.8374   86.3129 H           1 DVA       0.0525
    120 H50        45.1658   61.1886   89.0509 H           1 DVA       0.2458
    121 H51        45.6965   57.9832   83.8484 H           1 DVA       0.1884
    122 H52        47.9153   58.4947   82.3983 H           1 DVA       0.0819
    123 H53        45.1679   59.4832   81.5008 H           1 DVA       0.0478
    124 H54        46.7534   60.2386   81.3000 H           1 DVA       0.0478
    125 H55        48.7271   57.4346   80.7057 H           1 DVA       0.1876
    126 H56        48.7820   56.7788   78.5409 H           1 DVA       0.0749
    127 H57        46.3562   55.0030   78.5569 H           1 DVA       0.0599
    128 H58        47.1712   55.8591   77.2210 H           1 DVA       0.0599
    129 H59        46.3028   57.8101   78.1085 H           1 DVA       0.2096
@<TRIPOS>BOND
     1     1     2   1
     2     2     3   1
     3     2     6   1
     4     3     4   1
     5     3     5   1
     6     6     7   2
     7     6     8  am
     8     8     9   1
     9     8    12   1
    10     9    10   1
    11     9    13   1
    12    10    11   1
    13    11    12   1
    14    13    14   2
    15    13    15  am
    16    15    16   1
    17    16    17   1
    18    17    18   2
    19    17    19  am
    20    19    20   1
    21    20    21   1
    22    20    23   1
    23    21    22   2
    24    21    25  am
    25    23    24   1
    26    25    26   1
    27    26    27   1
    28    26    29   1
    29    27    28   2
    30    27    34  am
    31    29    30   1
    32    30    31   1
    33    31    32   2
    34    31    33  am
    35    34    35   1
    36    35    36   1
    37    35    38   1
    38    36    37   2
    39    36    44  am
    40    38    39   1
    41    39    40   1
    42    39    41   2
    43    40    42   2
    44    41    43   1
    45    42    43   1
    46    44    45   1
    47    45    46   1
    48    45    48   1
    49    46    47   2
    50    46    56  am
    51    48    49   1
    52    49    50  ar
    53    49    51  ar
    54    50    52  ar
    55    51    53  ar
    56    52    54  ar
    57    53    54  ar
    58    54    55   1
    59    56    57   1
    60    57    58   1
    61    57    60   1
    62    58    59   2
    63    58    64  am
    64    60    61   1
    65    61    62  ar
    66    61    63  ar
    67    64    65   1
    68    65    66   1
    69    65    69   1
    70    66    67  ar
    71    66    68  ar
    72    69    70   1
    73     1    71   1
    74     1    72   1
    75     1    73   1
    76     2    74   1
    77     3    75   1
    78     4    76   1
    79     4    77   1
    80     4    78   1
    81     5    79   1
    82     5    80   1
    83     5    81   1
    84     9    82   1
    85    10    83   1
    86    10    84   1
    87    11    85   1
    88    11    86   1
    89    12    87   1
    90    12    88   1
    91    15    89   1
    92    16    90   1
    93    16    91   1
    94    19    92   1
    95    20    93   1
    96    23    94   1
    97    23    95   1
    98    24    96   1
    99    25    97   1
   100    26    98   1
   101    29    99   1
   102    29   100   1
   103    30   101   1
   104    30   102   1
   105    33   103   1
   106    33   104   1
   107    34   105   1
   108    35   106   1
   109    38   107   1
   110    38   108   1
   111    41   109   1
   112    42   110   1
   113    43   111   1
   114    44   112   1
   115    45   113   1
   116    48   114   1
   117    48   115   1
   118    50   116   1
   119    51   117   1
   120    52   118   1
   121    53   119   1
   122    55   120   1
   123    56   121   1
   124    57   122   1
   125    60   123   1
   126    60   124   1
   127    64   125   1
   128    65   126   1
   129    69   127   1
   130    69   128   1
   131    70   129   1
@<TRIPOS>SUBSTRUCTURE
     1  DVA      2

