@<TRIPOS>MOLECULE
1zea_ligand_054
   129   131
SMALL
GAST_HUCK
****
This file was generated by PARSER (from files_GN.cpp)

@<TRIPOS>ATOM
      1 N          53.3816   52.0198   81.8654 N.4         1 DVA       0.2381
      2 CA         52.5107   51.7294   80.7121 C.3         1 DVA       0.0675
      3 CB         52.7392   50.2799   80.1621 C.3         1 DVA       0.0139
      4 CG1        51.6113   49.8493   79.1808 C.3         1 DVA      -0.0553
      5 CG2        54.1394   50.0261   79.5367 C.3         1 DVA      -0.0553
      6 C          52.6389   52.8046   79.7178 C.2         1 DVA       0.2295
      7 O          53.7876   53.1619   79.4774 O.2         1 DVA      -0.3905
      8 N          51.6255   53.4339   79.0887 N.am        1 DVA      -0.2471
      9 CA         50.2174   53.1759   79.2745 C.3         1 DVA       0.1339
     10 CB         49.5060   53.9238   78.1210 C.3         1 DVA      -0.0104
     11 CG         50.4880   55.0242   77.7061 C.3         1 DVA      -0.0281
     12 CD         51.8606   54.4559   78.1024 C.3         1 DVA       0.0371
     13 C          49.7606   53.5989   80.5978 C.2         1 DVA       0.2039
     14 O          49.1320   52.8113   81.2929 O.2         1 DVA      -0.3944
     15 N          50.0794   54.8068   81.0545 N.am        1 DVA      -0.2664
     16 CA         49.8880   55.2997   82.3835 C.3         1 DVA       0.1201
     17 C          48.5634   55.0777   82.9265 C.2         1 DVA       0.2008
     18 O          48.4732   54.5573   84.0315 O.2         1 DVA      -0.3947
     19 N          47.4917   55.4058   82.2143 N.am        1 DVA      -0.2618
     20 CA         46.1095   55.2388   82.5662 C.3         1 DVA       0.1539
     21 C          45.6985   53.8325   82.6018 C.2         1 DVA       0.2062
     22 O          45.2078   53.3344   81.5995 O.2         1 DVA      -0.3943
     23 CB         45.7580   56.0711   83.8351 C.3         1 DVA       0.0843
     24 OG         44.5065   55.6878   84.3994 O.3         1 DVA      -0.3903
     25 N          45.8070   53.1058   83.7126 N.am        1 DVA      -0.2635
     26 CA         45.2965   51.7794   83.9761 C.3         1 DVA       0.1330
     27 C          43.8609   51.8543   84.2564 C.2         1 DVA       0.2041
     28 O          43.0528   51.1579   83.6558 O.2         1 DVA      -0.3944
     29 CB         45.7769   50.7463   82.9014 C.3         1 DVA       0.0045
     30 CG         45.9065   49.2607   83.3635 C.3         1 DVA       0.0412
     31 CD         44.6564   48.5759   83.6413 C.2         1 DVA       0.1737
     32 OE1        43.7270   48.6396   82.8533 O.2         1 DVA      -0.3973
     33 NE2        44.5052   47.8093   84.6968 N.am        1 DVA      -0.3009
     34 N          43.4357   52.7352   85.1567 N.am        1 DVA      -0.2625
     35 CA         42.0934   52.9828   85.6416 C.3         1 DVA       0.1369
     36 C          42.1219   53.3121   87.0790 C.2         1 DVA       0.2055
     37 O          43.1837   53.4874   87.6700 O.2         1 DVA      -0.3942
     38 CB         41.4320   54.1347   84.8131 C.3         1 DVA       0.0145
     39 CG         41.4969   53.9300   83.3513 C.2         1 DVA      -0.0027
     40 ND1        42.4318   54.4450   82.5328 N.2         1 DVA      -0.3252
     41 CD2        40.6332   53.1635   82.5765 C.2         1 DVA       0.0291
     42 CE1        42.1667   53.9977   81.2940 C.2         1 DVA       0.0907
     43 NE2        41.0744   53.2211   81.3155 N.pl3       1 DVA      -0.2752
     44 N          40.9822   53.4718   87.7504 N.am        1 DVA      -0.2620
     45 CA         40.8061   53.9966   89.0912 C.3         1 DVA       0.1390
     46 C          40.9735   53.0150   90.1671 C.2         1 DVA       0.2058
     47 O          41.3177   51.8716   89.9047 O.2         1 DVA      -0.3942
     48 CB         41.6626   55.3008   89.3314 C.3         1 DVA       0.0163
     49 CG         40.8732   56.5683   89.2921 C.ar        1 DVA      -0.0493
     50 CD1        40.3231   57.0233   88.0702 C.ar        1 DVA      -0.0685
     51 CD2        40.6995   57.3629   90.4545 C.ar        1 DVA      -0.0685
     52 CE1        39.6313   58.2476   88.0067 C.ar        1 DVA      -0.0398
     53 CE2        40.0174   58.5903   90.3840 C.ar        1 DVA      -0.0398
     54 CZ         39.4949   59.0455   89.1609 C.ar        1 DVA       0.0805
     55 OH         38.8902   60.2567   89.1135 O.3         1 DVA      -0.3376
     56 N          40.7222   53.3988   91.4198 N.am        1 DVA      -0.2620
     57 CA         40.7855   52.6350   92.6392 C.3         1 DVA       0.1423
     58 C          39.8370   51.5153   92.6262 C.2         1 DVA       0.2051
     59 O          39.8503   50.7351   91.6806 O.2         1 DVA      -0.3943
     60 CB         42.2429   52.2214   93.0238 C.3         1 DVA       0.0406
     61 CG         42.4206   51.4709   94.2909 C.2         1 DVA       0.0393
     62 OD1        43.5355   50.7240   94.4681 O.co2       1 DVA      -0.5688
     63 OD2        41.5003   51.4694   95.2839 O.co2       1 DVA      -0.5688
     64 N          38.9643   51.3590   93.6194 N.am        1 DVA      -0.2671
     65 CA         37.8602   50.4411   93.6671 C.3         1 DVA       0.1173
     66 C          38.2502   49.0476   93.3454 C.2         1 DVA       0.0623
     67 O          38.9838   48.3209   94.2231 O.co2       1 DVA      -0.5665
     68 OXT        38.0747   48.5614   92.0900 O.co2       1 DVA      -0.5665
     69 CB         37.1822   50.4885   95.0619 C.3         1 DVA       0.0789
     70 OG         36.9913   51.8237   95.5242 O.3         1 DVA      -0.3910
     71 H1         53.3192   51.2604   82.5464 H           1 DVA       0.2015
     72 H2         53.0824   52.8928   82.3081 H           1 DVA       0.2015
     73 H3         54.3517   52.1142   81.5575 H           1 DVA       0.2015
     74 H4         51.5120   51.7165   81.1386 H           1 DVA       0.1101
     75 H5         52.6664   49.6096   81.0236 H           1 DVA       0.0376
     76 H6         51.7377   48.8051   78.8893 H           1 DVA       0.0236
     77 H7         51.6230   50.4653   78.2800 H           1 DVA       0.0236
     78 H8         50.6352   49.9498   79.6587 H           1 DVA       0.0236
     79 H9         54.9304   50.3530   80.2144 H           1 DVA       0.0236
     80 H10        54.2494   50.5535   78.5879 H           1 DVA       0.0236
     81 H11        54.2782   48.9582   79.3506 H           1 DVA       0.0236
     82 H12        50.0212   52.1068   79.1320 H           1 DVA       0.0802
     83 H13        48.5341   54.3384   78.4050 H           1 DVA       0.0313
     84 H14        49.3571   53.2426   77.2774 H           1 DVA       0.0313
     85 H15        50.2800   55.9441   78.2598 H           1 DVA       0.0287
     86 H16        50.4304   55.2362   76.6360 H           1 DVA       0.0287
     87 H17        52.3544   54.0189   77.2294 H           1 DVA       0.0524
     88 H18        52.4872   55.2577   78.5044 H           1 DVA       0.0524
     89 H19        50.5557   55.3928   80.4483 H           1 DVA       0.1881
     90 H20        50.0737   56.3752   82.3669 H           1 DVA       0.0763
     91 H21        50.6476   54.8467   83.0239 H           1 DVA       0.0763
     92 H22        47.6606   55.8034   81.3430 H           1 DVA       0.1884
     93 H23        45.5492   55.7164   81.7562 H           1 DVA       0.0823
     94 H24        45.7028   57.1343   83.5747 H           1 DVA       0.0606
     95 H25        46.5182   55.9560   84.6119 H           1 DVA       0.0606
     96 H26        44.3746   56.2790   85.1694 H           1 DVA       0.2097
     97 H27        46.2248   53.5426   84.4722 H           1 DVA       0.1883
     98 H28        45.7738   51.4764   84.9112 H           1 DVA       0.0801
     99 H29        46.7815   51.0464   82.5693 H           1 DVA       0.0337
    100 H30        45.1370   50.7891   82.0120 H           1 DVA       0.0337
    101 H31        46.5714   49.2175   84.2310 H           1 DVA       0.0504
    102 H32        46.4057   48.7033   82.5597 H           1 DVA       0.0504
    103 H33        43.6792   47.3172   84.8193 H           1 DVA       0.1814
    104 H34        45.2198   47.7242   85.3489 H           1 DVA       0.1814
    105 H35        44.1206   53.3145   85.5395 H           1 DVA       0.1885
    106 H36        41.4812   52.0825   85.5317 H           1 DVA       0.0817
    107 H37        41.9237   55.0832   85.0522 H           1 DVA       0.0420
    108 H38        40.3780   54.2400   85.0863 H           1 DVA       0.0420
    109 H39        39.8090   52.6570   82.9040 H           1 DVA       0.0729
    110 H40        42.7145   54.2220   80.4616 H           1 DVA       0.1199
    111 H41        40.6714   52.7836   80.5477 H           1 DVA       0.2361
    112 H42        40.1728   53.2193   87.2763 H           1 DVA       0.1885
    113 H43        39.7433   54.2693   89.1283 H           1 DVA       0.0821
    114 H44        42.4485   55.3912   88.5772 H           1 DVA       0.0453
    115 H45        42.1916   55.2376   90.2877 H           1 DVA       0.0453
    116 H46        40.4372   56.4707   87.2171 H           1 DVA       0.0530
    117 H47        41.0748   57.0546   91.3529 H           1 DVA       0.0530
    118 H48        39.2385   58.5583   87.1157 H           1 DVA       0.0525
    119 H49        39.8997   59.1521   91.2305 H           1 DVA       0.0525
    120 H50        38.0163   60.0968   88.6914 H           1 DVA       0.2458
    121 H51        40.4371   54.3127   91.5282 H           1 DVA       0.1884
    122 H52        40.4723   53.3348   93.4225 H           1 DVA       0.0819
    123 H53        42.8457   53.1306   93.1079 H           1 DVA       0.0478
    124 H54        42.6701   51.6178   92.2232 H           1 DVA       0.0478
    125 H55        39.0423   51.9814   94.3626 H           1 DVA       0.1876
    126 H56        37.1299   50.7828   92.9290 H           1 DVA       0.0749
    127 H57        37.7941   49.9672   95.8065 H           1 DVA       0.0599
    128 H58        36.2065   49.9989   95.0136 H           1 DVA       0.0599
    129 H59        36.4765   52.2699   94.8161 H           1 DVA       0.2096
@<TRIPOS>BOND
     1     1     2   1
     2     2     3   1
     3     2     6   1
     4     3     4   1
     5     3     5   1
     6     6     7   2
     7     6     8  am
     8     8     9   1
     9     8    12   1
    10     9    10   1
    11     9    13   1
    12    10    11   1
    13    11    12   1
    14    13    14   2
    15    13    15  am
    16    15    16   1
    17    16    17   1
    18    17    18   2
    19    17    19  am
    20    19    20   1
    21    20    21   1
    22    20    23   1
    23    21    22   2
    24    21    25  am
    25    23    24   1
    26    25    26   1
    27    26    27   1
    28    26    29   1
    29    27    28   2
    30    27    34  am
    31    29    30   1
    32    30    31   1
    33    31    32   2
    34    31    33  am
    35    34    35   1
    36    35    36   1
    37    35    38   1
    38    36    37   2
    39    36    44  am
    40    38    39   1
    41    39    40   1
    42    39    41   2
    43    40    42   2
    44    41    43   1
    45    42    43   1
    46    44    45   1
    47    45    46   1
    48    45    48   1
    49    46    47   2
    50    46    56  am
    51    48    49   1
    52    49    50  ar
    53    49    51  ar
    54    50    52  ar
    55    51    53  ar
    56    52    54  ar
    57    53    54  ar
    58    54    55   1
    59    56    57   1
    60    57    58   1
    61    57    60   1
    62    58    59   2
    63    58    64  am
    64    60    61   1
    65    61    62  ar
    66    61    63  ar
    67    64    65   1
    68    65    66   1
    69    65    69   1
    70    66    67  ar
    71    66    68  ar
    72    69    70   1
    73     1    71   1
    74     1    72   1
    75     1    73   1
    76     2    74   1
    77     3    75   1
    78     4    76   1
    79     4    77   1
    80     4    78   1
    81     5    79   1
    82     5    80   1
    83     5    81   1
    84     9    82   1
    85    10    83   1
    86    10    84   1
    87    11    85   1
    88    11    86   1
    89    12    87   1
    90    12    88   1
    91    15    89   1
    92    16    90   1
    93    16    91   1
    94    19    92   1
    95    20    93   1
    96    23    94   1
    97    23    95   1
    98    24    96   1
    99    25    97   1
   100    26    98   1
   101    29    99   1
   102    29   100   1
   103    30   101   1
   104    30   102   1
   105    33   103   1
   106    33   104   1
   107    34   105   1
   108    35   106   1
   109    38   107   1
   110    38   108   1
   111    41   109   1
   112    42   110   1
   113    43   111   1
   114    44   112   1
   115    45   113   1
   116    48   114   1
   117    48   115   1
   118    50   116   1
   119    51   117   1
   120    52   118   1
   121    53   119   1
   122    55   120   1
   123    56   121   1
   124    57   122   1
   125    60   123   1
   126    60   124   1
   127    64   125   1
   128    65   126   1
   129    69   127   1
   130    69   128   1
   131    70   129   1
@<TRIPOS>SUBSTRUCTURE
     1  DVA      2

