@<TRIPOS>MOLECULE
1zea_ligand_061
   129   131
SMALL
GAST_HUCK
****
This file was generated by PARSER (from files_GN.cpp)

@<TRIPOS>ATOM
      1 N          51.1364   49.7994   77.0711 N.4         1 DVA       0.2381
      2 CA         51.2679   51.1812   77.5683 C.3         1 DVA       0.0675
      3 CB         51.9340   52.1359   76.5115 C.3         1 DVA       0.0139
      4 CG1        53.2563   51.5910   75.8991 C.3         1 DVA      -0.0553
      5 CG2        50.9440   52.5172   75.3737 C.3         1 DVA      -0.0553
      6 C          51.9526   51.1931   78.8684 C.2         1 DVA       0.2295
      7 O          53.0193   50.5864   78.9151 O.2         1 DVA      -0.3905
      8 N          51.5333   51.8375   79.9746 N.am        1 DVA      -0.2471
      9 CA         50.3258   52.6281   80.0881 C.3         1 DVA       0.1339
     10 CB         50.5618   53.5053   81.3418 C.3         1 DVA      -0.0104
     11 CG         51.4808   52.6477   82.2174 C.3         1 DVA      -0.0281
     12 CD         52.3056   51.8542   81.1893 C.3         1 DVA       0.0371
     13 C          49.0996   51.8342   80.2026 C.2         1 DVA       0.2039
     14 O          49.1605   50.6603   80.5537 O.2         1 DVA      -0.3944
     15 N          47.9302   52.4128   79.9629 N.am        1 DVA      -0.2664
     16 CA         46.6432   51.7961   80.0655 C.3         1 DVA       0.1201
     17 C          46.1914   51.6784   81.4404 C.2         1 DVA       0.2008
     18 O          46.1531   52.6967   82.1232 O.2         1 DVA      -0.3947
     19 N          45.8127   50.5026   81.9367 N.am        1 DVA      -0.2618
     20 CA         45.3723   50.2523   83.2839 C.3         1 DVA       0.1539
     21 C          44.0368   50.8003   83.5272 C.2         1 DVA       0.2062
     22 O          43.1252   50.4199   82.8085 O.2         1 DVA      -0.3943
     23 CB         45.3963   48.7255   83.5894 C.3         1 DVA       0.0843
     24 OG         44.3061   47.9960   83.0163 O.3         1 DVA      -0.3903
     25 N          43.8000   51.6242   84.5397 N.am        1 DVA      -0.2635
     26 CA         42.4970   52.0349   85.0193 C.3         1 DVA       0.1330
     27 C          42.5554   52.6225   86.3604 C.2         1 DVA       0.2041
     28 O          43.6380   52.8531   86.8952 O.2         1 DVA      -0.3944
     29 CB         41.7383   52.9380   83.9847 C.3         1 DVA       0.0045
     30 CG         42.2295   54.4066   83.8296 C.3         1 DVA       0.0412
     31 CD         42.0271   55.2284   85.0054 C.2         1 DVA       0.1737
     32 OE1        42.9637   55.8207   85.5227 O.2         1 DVA      -0.3973
     33 NE2        40.8231   55.4090   85.5137 N.am        1 DVA      -0.3009
     34 N          41.4255   52.8573   87.0325 N.am        1 DVA      -0.2625
     35 CA         41.2357   53.4004   88.3554 C.3         1 DVA       0.1369
     36 C          41.3308   52.3850   89.3954 C.2         1 DVA       0.2055
     37 O          41.9161   51.3282   89.2002 O.2         1 DVA      -0.3942
     38 CB         42.1317   54.6506   88.6392 C.3         1 DVA       0.0145
     39 CG         41.5926   55.6134   89.6226 C.2         1 DVA      -0.0027
     40 ND1        42.2792   56.1419   90.6551 N.2         1 DVA      -0.3252
     41 CD2        40.3265   56.1970   89.6173 C.2         1 DVA       0.0291
     42 CE1        41.4639   57.0079   91.2742 C.2         1 DVA       0.0907
     43 NE2        40.2732   57.0352   90.6498 N.pl3       1 DVA      -0.2752
     44 N          40.7328   52.6198   90.5584 N.am        1 DVA      -0.2620
     45 CA         40.6681   51.7529   91.7124 C.3         1 DVA       0.1390
     46 C          41.7210   52.1791   92.6257 C.2         1 DVA       0.2058
     47 O          41.4828   52.6297   93.7421 O.2         1 DVA      -0.3942
     48 CB         39.2028   51.7702   92.2722 C.3         1 DVA       0.0163
     49 CG         38.8103   50.4992   92.9494 C.ar        1 DVA      -0.0493
     50 CD1        39.4285   50.0893   94.1535 C.ar        1 DVA      -0.0685
     51 CD2        37.8160   49.6613   92.3866 C.ar        1 DVA      -0.0685
     52 CE1        39.0807   48.8679   94.7633 C.ar        1 DVA      -0.0398
     53 CE2        37.4645   48.4453   92.9983 C.ar        1 DVA      -0.0398
     54 CZ         38.1021   48.0437   94.1842 C.ar        1 DVA       0.0805
     55 OH         37.7636   46.8684   94.7624 O.3         1 DVA      -0.3376
     56 N          42.9710   52.1355   92.1627 N.am        1 DVA      -0.2620
     57 CA         44.1564   52.6201   92.8125 C.3         1 DVA       0.1423
     58 C          44.3497   51.9867   94.1202 C.2         1 DVA       0.2051
     59 O          44.0989   52.6376   95.1288 O.2         1 DVA      -0.3943
     60 CB         45.4237   52.4729   91.8990 C.3         1 DVA       0.0406
     61 CG         45.3812   51.3275   90.9600 C.2         1 DVA       0.0393
     62 OD1        44.4605   51.3125   89.9649 O.co2       1 DVA      -0.5688
     63 OD2        46.3404   50.3741   90.9555 O.co2       1 DVA      -0.5688
     64 N          44.7602   50.7254   94.2095 N.am        1 DVA      -0.2671
     65 CA         44.9305   49.9821   95.4244 C.3         1 DVA       0.1173
     66 C          43.6323   49.8362   96.1184 C.2         1 DVA       0.0623
     67 O          42.5833   49.2214   95.5224 O.co2       1 DVA      -0.5665
     68 OXT        43.4528   50.3509   97.3584 O.co2       1 DVA      -0.5665
     69 CB         45.5729   48.5992   95.1353 C.3         1 DVA       0.0789
     70 OG         44.9808   47.9328   94.0200 O.3         1 DVA      -0.3910
     71 H1         50.6694   49.7989   76.1625 H           1 DVA       0.2015
     72 H2         50.5849   49.2459   77.7330 H           1 DVA       0.2015
     73 H3         52.0612   49.3764   76.9690 H           1 DVA       0.2015
     74 H4         50.2378   51.5094   77.7060 H           1 DVA       0.1101
     75 H5         52.1817   53.0739   77.0231 H           1 DVA       0.0376
     76 H6         53.6910   52.3293   75.2226 H           1 DVA       0.0236
     77 H7         53.0747   50.6754   75.3363 H           1 DVA       0.0236
     78 H8         53.9910   51.3841   76.6767 H           1 DVA       0.0236
     79 H9         50.0490   52.9879   75.7859 H           1 DVA       0.0236
     80 H10        50.6444   51.6345   74.8068 H           1 DVA       0.0236
     81 H11        51.4081   53.2295   74.6870 H           1 DVA       0.0236
     82 H12        50.2462   53.2983   79.2226 H           1 DVA       0.0802
     83 H13        49.6440   53.7772   81.8678 H           1 DVA       0.0313
     84 H14        51.0852   54.4221   81.0593 H           1 DVA       0.0313
     85 H15        50.8843   51.9669   82.8338 H           1 DVA       0.0287
     86 H16        52.1139   53.2593   82.8665 H           1 DVA       0.0287
     87 H17        53.2643   52.3528   81.0143 H           1 DVA       0.0524
     88 H18        52.4893   50.8411   81.5598 H           1 DVA       0.0524
     89 H19        47.9477   53.3329   79.6613 H           1 DVA       0.1881
     90 H20        46.6602   50.8245   79.5630 H           1 DVA       0.0763
     91 H21        45.9278   52.4226   79.5296 H           1 DVA       0.0763
     92 H22        45.8677   49.7347   81.3429 H           1 DVA       0.1884
     93 H23        46.0984   50.7113   83.9606 H           1 DVA       0.0823
     94 H24        45.3572   48.5698   84.6689 H           1 DVA       0.0606
     95 H25        46.3308   48.2932   83.2220 H           1 DVA       0.0606
     96 H26        44.4568   48.0245   82.0490 H           1 DVA       0.2097
     97 H27        44.5689   51.8922   85.0746 H           1 DVA       0.1883
     98 H28        41.9100   51.1267   85.1337 H           1 DVA       0.0801
     99 H29        40.6737   52.9361   84.2213 H           1 DVA       0.0337
    100 H30        41.8112   52.4712   83.0011 H           1 DVA       0.0337
    101 H31        41.6828   54.8781   83.0104 H           1 DVA       0.0504
    102 H32        43.2874   54.3938   83.5498 H           1 DVA       0.0504
    103 H33        40.6997   55.9719   86.2987 H           1 DVA       0.1814
    104 H34        40.0463   54.9858   85.1060 H           1 DVA       0.1814
    105 H35        40.6039   52.6298   86.5592 H           1 DVA       0.1885
    106 H36        40.1960   53.7309   88.3392 H           1 DVA       0.0817
    107 H37        42.2704   55.2089   87.7055 H           1 DVA       0.0420
    108 H38        43.1248   54.3193   88.9689 H           1 DVA       0.0420
    109 H39        39.5820   56.0366   88.9379 H           1 DVA       0.0729
    110 H40        41.7120   57.5799   92.0821 H           1 DVA       0.1199
    111 H41        39.5202   57.5963   90.8930 H           1 DVA       0.2361
    112 H42        40.2862   53.4900   90.6546 H           1 DVA       0.1885
    113 H43        40.8858   50.7262   91.4047 H           1 DVA       0.0821
    114 H44        38.5113   51.9551   91.4388 H           1 DVA       0.0453
    115 H45        39.0512   52.6065   92.9635 H           1 DVA       0.0453
    116 H46        40.1464   50.6734   94.5936 H           1 DVA       0.0530
    117 H47        37.3478   49.9264   91.5155 H           1 DVA       0.0530
    118 H48        39.5409   48.5852   95.6274 H           1 DVA       0.0525
    119 H49        36.7488   47.8518   92.5684 H           1 DVA       0.0525
    120 H50        38.5346   46.2733   94.6006 H           1 DVA       0.2458
    121 H51        43.0875   51.7880   91.2636 H           1 DVA       0.1884
    122 H52        44.0192   53.7027   92.9581 H           1 DVA       0.0819
    123 H53        46.3277   52.3969   92.5199 H           1 DVA       0.0478
    124 H54        45.5291   53.3845   91.2900 H           1 DVA       0.0478
    125 H55        44.9858   50.2738   93.3834 H           1 DVA       0.1876
    126 H56        45.6236   50.5158   96.0802 H           1 DVA       0.0749
    127 H57        45.4935   47.9523   96.0155 H           1 DVA       0.0599
    128 H58        46.6364   48.7362   94.9183 H           1 DVA       0.0599
    129 H59        44.0359   47.8241   94.2528 H           1 DVA       0.2096
@<TRIPOS>BOND
     1     1     2   1
     2     2     3   1
     3     2     6   1
     4     3     4   1
     5     3     5   1
     6     6     7   2
     7     6     8  am
     8     8     9   1
     9     8    12   1
    10     9    10   1
    11     9    13   1
    12    10    11   1
    13    11    12   1
    14    13    14   2
    15    13    15  am
    16    15    16   1
    17    16    17   1
    18    17    18   2
    19    17    19  am
    20    19    20   1
    21    20    21   1
    22    20    23   1
    23    21    22   2
    24    21    25  am
    25    23    24   1
    26    25    26   1
    27    26    27   1
    28    26    29   1
    29    27    28   2
    30    27    34  am
    31    29    30   1
    32    30    31   1
    33    31    32   2
    34    31    33  am
    35    34    35   1
    36    35    36   1
    37    35    38   1
    38    36    37   2
    39    36    44  am
    40    38    39   1
    41    39    40   1
    42    39    41   2
    43    40    42   2
    44    41    43   1
    45    42    43   1
    46    44    45   1
    47    45    46   1
    48    45    48   1
    49    46    47   2
    50    46    56  am
    51    48    49   1
    52    49    50  ar
    53    49    51  ar
    54    50    52  ar
    55    51    53  ar
    56    52    54  ar
    57    53    54  ar
    58    54    55   1
    59    56    57   1
    60    57    58   1
    61    57    60   1
    62    58    59   2
    63    58    64  am
    64    60    61   1
    65    61    62  ar
    66    61    63  ar
    67    64    65   1
    68    65    66   1
    69    65    69   1
    70    66    67  ar
    71    66    68  ar
    72    69    70   1
    73     1    71   1
    74     1    72   1
    75     1    73   1
    76     2    74   1
    77     3    75   1
    78     4    76   1
    79     4    77   1
    80     4    78   1
    81     5    79   1
    82     5    80   1
    83     5    81   1
    84     9    82   1
    85    10    83   1
    86    10    84   1
    87    11    85   1
    88    11    86   1
    89    12    87   1
    90    12    88   1
    91    15    89   1
    92    16    90   1
    93    16    91   1
    94    19    92   1
    95    20    93   1
    96    23    94   1
    97    23    95   1
    98    24    96   1
    99    25    97   1
   100    26    98   1
   101    29    99   1
   102    29   100   1
   103    30   101   1
   104    30   102   1
   105    33   103   1
   106    33   104   1
   107    34   105   1
   108    35   106   1
   109    38   107   1
   110    38   108   1
   111    41   109   1
   112    42   110   1
   113    43   111   1
   114    44   112   1
   115    45   113   1
   116    48   114   1
   117    48   115   1
   118    50   116   1
   119    51   117   1
   120    52   118   1
   121    53   119   1
   122    55   120   1
   123    56   121   1
   124    57   122   1
   125    60   123   1
   126    60   124   1
   127    64   125   1
   128    65   126   1
   129    69   127   1
   130    69   128   1
   131    70   129   1
@<TRIPOS>SUBSTRUCTURE
     1  DVA      2

