@<TRIPOS>MOLECULE
1zea_ligand_014
   129   131
SMALL
GAST_HUCK
****
This file was generated by PARSER (from files_GN.cpp)

@<TRIPOS>ATOM
      1 N          53.5079   52.0257   81.7850 N.4         1 DVA       0.2381
      2 CA         52.5478   51.7411   80.7005 C.3         1 DVA       0.0675
      3 CB         52.7214   50.2721   80.1836 C.3         1 DVA       0.0139
      4 CG1        51.5692   49.8403   79.2358 C.3         1 DVA      -0.0553
      5 CG2        54.0974   49.9619   79.5304 C.3         1 DVA      -0.0553
      6 C          52.6262   52.7894   79.6731 C.2         1 DVA       0.2295
      7 O          53.7599   53.0570   79.2898 O.2         1 DVA      -0.3905
      8 N          51.5937   53.4808   79.1488 N.am        1 DVA      -0.2471
      9 CA         50.1906   53.2389   79.3984 C.3         1 DVA       0.1339
     10 CB         49.4412   54.0086   78.2791 C.3         1 DVA      -0.0104
     11 CG         50.4134   55.1161   77.8565 C.3         1 DVA      -0.0281
     12 CD         51.7958   54.5150   78.1658 C.3         1 DVA       0.0371
     13 C          49.7760   53.6381   80.7461 C.2         1 DVA       0.2039
     14 O          49.1148   52.8496   81.4116 O.2         1 DVA      -0.3944
     15 N          50.1201   54.8191   81.2450 N.am        1 DVA      -0.2664
     16 CA         49.9043   55.2786   82.5837 C.3         1 DVA       0.1201
     17 C          48.5666   55.0407   83.0886 C.2         1 DVA       0.2008
     18 O          48.4382   54.4862   84.1704 O.2         1 DVA      -0.3947
     19 N          47.5229   55.4253   82.3663 N.am        1 DVA      -0.2618
     20 CA         46.1274   55.2639   82.6606 C.3         1 DVA       0.1539
     21 C          45.7070   53.8614   82.6822 C.2         1 DVA       0.2062
     22 O          45.2309   53.3767   81.6621 O.2         1 DVA      -0.3943
     23 CB         45.7108   56.0707   83.9258 C.3         1 DVA       0.0843
     24 OG         44.4674   55.6182   84.4510 O.3         1 DVA      -0.3903
     25 N          45.8006   53.1337   83.7900 N.am        1 DVA      -0.2635
     26 CA         45.2689   51.8178   84.0444 C.3         1 DVA       0.1330
     27 C          43.8260   51.8997   84.2877 C.2         1 DVA       0.2041
     28 O          43.0437   51.1576   83.7075 O.2         1 DVA      -0.3944
     29 CB         45.7589   50.7778   82.9766 C.3         1 DVA       0.0045
     30 CG         45.8942   49.2998   83.4556 C.3         1 DVA       0.0412
     31 CD         44.6499   48.5972   83.7119 C.2         1 DVA       0.1737
     32 OE1        43.7330   48.6460   82.9040 O.2         1 DVA      -0.3973
     33 NE2        44.4840   47.8430   84.7778 N.am        1 DVA      -0.3009
     34 N          43.3836   52.8369   85.1187 N.am        1 DVA      -0.2625
     35 CA         42.0333   53.0756   85.5734 C.3         1 DVA       0.1369
     36 C          42.0211   53.3349   87.0253 C.2         1 DVA       0.2055
     37 O          43.0636   53.5001   87.6490 O.2         1 DVA      -0.3942
     38 CB         41.4039   54.2670   84.7761 C.3         1 DVA       0.0145
     39 CG         41.3026   54.0474   83.3196 C.2         1 DVA      -0.0027
     40 ND1        42.2753   54.3110   82.4304 N.2         1 DVA      -0.3252
     41 CD2        40.1945   53.5954   82.6085 C.2         1 DVA       0.0291
     42 CE1        41.7966   54.0119   81.2120 C.2         1 DVA       0.0907
     43 NE2        40.5279   53.5877   81.3138 N.pl3       1 DVA      -0.2752
     44 N          40.8565   53.3911   87.6717 N.am        1 DVA      -0.2620
     45 CA         40.5918   53.6632   89.0615 C.3         1 DVA       0.1390
     46 C          40.6818   52.4823   89.9162 C.2         1 DVA       0.2058
     47 O          41.3914   51.5391   89.5964 O.2         1 DVA      -0.3942
     48 CB         41.3792   54.8886   89.6513 C.3         1 DVA       0.0163
     49 CG         40.8914   56.2213   89.1680 C.ar        1 DVA      -0.0493
     50 CD1        41.0831   56.6194   87.8226 C.ar        1 DVA      -0.0685
     51 CD2        40.2348   57.1176   90.0512 C.ar        1 DVA      -0.0685
     52 CE1        40.6137   57.8660   87.3684 C.ar        1 DVA      -0.0398
     53 CE2        39.7671   58.3607   89.5930 C.ar        1 DVA      -0.0398
     54 CZ         39.9473   58.7323   88.2474 C.ar        1 DVA       0.0805
     55 OH         39.4716   59.9125   87.7937 O.3         1 DVA      -0.3376
     56 N          39.9509   52.4418   91.0178 N.am        1 DVA      -0.2620
     57 CA         39.7952   51.3397   91.9202 C.3         1 DVA       0.1423
     58 C          40.5173   51.6298   93.1514 C.2         1 DVA       0.2051
     59 O          39.9283   51.7056   94.2252 O.2         1 DVA      -0.3943
     60 CB         38.2591   51.0871   92.0734 C.3         1 DVA       0.0406
     61 CG         37.9421   49.8096   92.7530 C.2         1 DVA       0.0393
     62 OD1        37.6549   49.7987   94.0778 O.co2       1 DVA      -0.5688
     63 OD2        37.5965   48.7191   92.0233 O.co2       1 DVA      -0.5688
     64 N          41.8263   51.8463   93.0893 N.am        1 DVA      -0.2671
     65 CA         42.7237   52.1695   94.1641 C.3         1 DVA       0.1173
     66 C          42.2954   53.4098   94.8708 C.2         1 DVA       0.0623
     67 O          41.8526   53.3936   96.1497 O.co2       1 DVA      -0.5665
     68 OXT        42.2233   54.5759   94.1883 O.co2       1 DVA      -0.5665
     69 CB         42.9816   50.9550   95.1016 C.3         1 DVA       0.0789
     70 OG         44.0153   50.1164   94.5797 O.3         1 DVA      -0.3910
     71 H1         53.4606   51.2814   82.4869 H           1 DVA       0.2015
     72 H2         53.2784   52.9186   82.2296 H           1 DVA       0.2015
     73 H3         54.4596   52.0681   81.4128 H           1 DVA       0.2015
     74 H4         51.5850   51.7635   81.1980 H           1 DVA       0.1101
     75 H5         52.6468   49.6230   81.0605 H           1 DVA       0.0376
     76 H6         51.6735   48.7872   78.9597 H           1 DVA       0.0236
     77 H7         51.5712   50.4397   78.3235 H           1 DVA       0.0236
     78 H8         50.6063   49.9625   79.7352 H           1 DVA       0.0236
     79 H9         54.9153   50.2589   80.1894 H           1 DVA       0.0236
     80 H10        54.2052   50.4849   78.5780 H           1 DVA       0.0236
     81 H11        54.1910   48.8890   79.3407 H           1 DVA       0.0236
     82 H12        49.9834   52.1698   79.2444 H           1 DVA       0.0802
     83 H13        48.4757   54.4150   78.6016 H           1 DVA       0.0313
     84 H14        49.2681   53.3456   77.4261 H           1 DVA       0.0313
     85 H15        50.2448   56.0192   78.4502 H           1 DVA       0.0287
     86 H16        50.3018   55.3626   76.7978 H           1 DVA       0.0287
     87 H17        52.2287   54.0867   77.2530 H           1 DVA       0.0524
     88 H18        52.4634   55.2939   78.5456 H           1 DVA       0.0524
     89 H19        50.6147   55.4112   80.6565 H           1 DVA       0.1881
     90 H20        50.0989   56.3495   82.6042 H           1 DVA       0.0763
     91 H21        50.6518   54.7986   83.2218 H           1 DVA       0.0763
     92 H22        47.7273   55.8561   81.5233 H           1 DVA       0.1884
     93 H23        45.6146   55.7535   81.8243 H           1 DVA       0.0823
     94 H24        45.6054   57.1288   83.6661 H           1 DVA       0.0606
     95 H25        46.4568   55.9875   84.7218 H           1 DVA       0.0606
     96 H26        44.2844   56.2048   85.2164 H           1 DVA       0.2097
     97 H27        46.2317   53.5626   84.5418 H           1 DVA       0.1883
     98 H28        45.7181   51.5155   84.9937 H           1 DVA       0.0801
     99 H29        46.7612   51.0722   82.6490 H           1 DVA       0.0337
    100 H30        45.1211   50.8118   82.0884 H           1 DVA       0.0337
    101 H31        46.5305   49.2764   84.3462 H           1 DVA       0.0504
    102 H32        46.4252   48.7440   82.6767 H           1 DVA       0.0504
    103 H33        43.6484   47.3686   84.9107 H           1 DVA       0.1814
    104 H34        45.1910   47.7643   85.4404 H           1 DVA       0.1814
    105 H35        44.0570   53.4379   85.4781 H           1 DVA       0.1885
    106 H36        41.4143   52.1833   85.4076 H           1 DVA       0.0817
    107 H37        41.9912   55.1706   84.9463 H           1 DVA       0.0420
    108 H38        40.3948   54.4730   85.1429 H           1 DVA       0.0420
    109 H39        39.2858   53.3331   82.9918 H           1 DVA       0.0729
    110 H40        42.3194   54.1093   80.3380 H           1 DVA       0.1199
    111 H41        39.9561   53.3249   80.5727 H           1 DVA       0.2361
    112 H42        40.0788   53.1763   87.1328 H           1 DVA       0.1885
    113 H43        39.5316   53.9489   89.0615 H           1 DVA       0.0821
    114 H44        42.4500   54.8048   89.4259 H           1 DVA       0.0453
    115 H45        41.2981   54.8689   90.7472 H           1 DVA       0.0453
    116 H46        41.5736   56.0030   87.1692 H           1 DVA       0.0530
    117 H47        40.0866   56.8582   91.0287 H           1 DVA       0.0530
    118 H48        40.7447   58.1301   86.3856 H           1 DVA       0.0525
    119 H49        39.2940   58.9886   90.2416 H           1 DVA       0.0525
    120 H50        38.5117   59.8913   87.9833 H           1 DVA       0.2458
    121 H51        39.4459   53.2399   91.2290 H           1 DVA       0.1884
    122 H52        40.2208   50.4245   91.5032 H           1 DVA       0.0819
    123 H53        37.7781   51.0580   91.0869 H           1 DVA       0.0478
    124 H54        37.7891   51.9085   92.6220 H           1 DVA       0.0478
    125 H55        42.2354   51.7926   92.2124 H           1 DVA       0.1876
    126 H56        43.6910   52.4096   93.7077 H           1 DVA       0.0749
    127 H57        42.0760   50.3483   95.2133 H           1 DVA       0.0599
    128 H58        43.2910   51.2911   96.1008 H           1 DVA       0.0599
    129 H59        44.8430   50.6347   94.6832 H           1 DVA       0.2096
@<TRIPOS>BOND
     1     1     2   1
     2     2     3   1
     3     2     6   1
     4     3     4   1
     5     3     5   1
     6     6     7   2
     7     6     8  am
     8     8     9   1
     9     8    12   1
    10     9    10   1
    11     9    13   1
    12    10    11   1
    13    11    12   1
    14    13    14   2
    15    13    15  am
    16    15    16   1
    17    16    17   1
    18    17    18   2
    19    17    19  am
    20    19    20   1
    21    20    21   1
    22    20    23   1
    23    21    22   2
    24    21    25  am
    25    23    24   1
    26    25    26   1
    27    26    27   1
    28    26    29   1
    29    27    28   2
    30    27    34  am
    31    29    30   1
    32    30    31   1
    33    31    32   2
    34    31    33  am
    35    34    35   1
    36    35    36   1
    37    35    38   1
    38    36    37   2
    39    36    44  am
    40    38    39   1
    41    39    40   1
    42    39    41   2
    43    40    42   2
    44    41    43   1
    45    42    43   1
    46    44    45   1
    47    45    46   1
    48    45    48   1
    49    46    47   2
    50    46    56  am
    51    48    49   1
    52    49    50  ar
    53    49    51  ar
    54    50    52  ar
    55    51    53  ar
    56    52    54  ar
    57    53    54  ar
    58    54    55   1
    59    56    57   1
    60    57    58   1
    61    57    60   1
    62    58    59   2
    63    58    64  am
    64    60    61   1
    65    61    62  ar
    66    61    63  ar
    67    64    65   1
    68    65    66   1
    69    65    69   1
    70    66    67  ar
    71    66    68  ar
    72    69    70   1
    73     1    71   1
    74     1    72   1
    75     1    73   1
    76     2    74   1
    77     3    75   1
    78     4    76   1
    79     4    77   1
    80     4    78   1
    81     5    79   1
    82     5    80   1
    83     5    81   1
    84     9    82   1
    85    10    83   1
    86    10    84   1
    87    11    85   1
    88    11    86   1
    89    12    87   1
    90    12    88   1
    91    15    89   1
    92    16    90   1
    93    16    91   1
    94    19    92   1
    95    20    93   1
    96    23    94   1
    97    23    95   1
    98    24    96   1
    99    25    97   1
   100    26    98   1
   101    29    99   1
   102    29   100   1
   103    30   101   1
   104    30   102   1
   105    33   103   1
   106    33   104   1
   107    34   105   1
   108    35   106   1
   109    38   107   1
   110    38   108   1
   111    41   109   1
   112    42   110   1
   113    43   111   1
   114    44   112   1
   115    45   113   1
   116    48   114   1
   117    48   115   1
   118    50   116   1
   119    51   117   1
   120    52   118   1
   121    53   119   1
   122    55   120   1
   123    56   121   1
   124    57   122   1
   125    60   123   1
   126    60   124   1
   127    64   125   1
   128    65   126   1
   129    69   127   1
   130    69   128   1
   131    70   129   1
@<TRIPOS>SUBSTRUCTURE
     1  DVA      2

