@<TRIPOS>MOLECULE
1zea_ligand_022
   129   131
SMALL
GAST_HUCK
****
This file was generated by PARSER (from files_GN.cpp)

@<TRIPOS>ATOM
      1 N          39.0750   58.5372   89.4765 N.4         1 DVA       0.2381
      2 CA         40.4719   58.7694   89.0857 C.3         1 DVA       0.0675
      3 CB         40.9705   57.6723   88.0784 C.3         1 DVA       0.0139
      4 CG1        40.4259   57.9354   86.6412 C.3         1 DVA      -0.0553
      5 CG2        42.5119   57.4674   88.0412 C.3         1 DVA      -0.0553
      6 C          41.3352   58.9719   90.2687 C.2         1 DVA       0.2295
      7 O          41.9418   60.0426   90.2765 O.2         1 DVA      -0.3905
      8 N          41.5642   58.1361   91.3081 N.am        1 DVA      -0.2471
      9 CA         40.9101   56.8775   91.5895 C.3         1 DVA       0.1339
     10 CB         41.2110   56.5990   93.0879 C.3         1 DVA      -0.0104
     11 CG         42.5579   57.2923   93.3291 C.3         1 DVA      -0.0281
     12 CD         42.4952   58.4821   92.3577 C.3         1 DVA       0.0371
     13 C          41.3473   55.7483   90.7656 C.2         1 DVA       0.2039
     14 O          42.5392   55.6079   90.4976 O.2         1 DVA      -0.3944
     15 N          40.4459   54.8473   90.3848 N.am        1 DVA      -0.2664
     16 CA         40.6815   53.6859   89.5749 C.3         1 DVA       0.1201
     17 C          40.8539   54.0121   88.1705 C.2         1 DVA       0.2008
     18 O          39.8939   54.5085   87.5880 O.2         1 DVA      -0.3947
     19 N          41.9771   53.7220   87.5356 N.am        1 DVA      -0.2618
     20 CA         42.2953   54.0069   86.1557 C.3         1 DVA       0.1539
     21 C          43.5430   53.3316   85.8268 C.2         1 DVA       0.2062
     22 O          44.4837   53.9904   85.3867 O.2         1 DVA      -0.3943
     23 CB         41.1894   53.5850   85.1411 C.3         1 DVA       0.0843
     24 OG         41.5791   53.8394   83.7915 O.3         1 DVA      -0.3903
     25 N          43.6257   52.0164   85.9860 N.am        1 DVA      -0.2635
     26 CA         44.7305   51.1619   85.6501 C.3         1 DVA       0.1330
     27 C          45.9687   51.6402   86.2574 C.2         1 DVA       0.2041
     28 O          46.1513   51.4473   87.4582 O.2         1 DVA      -0.3944
     29 CB         44.3677   49.7024   86.0781 C.3         1 DVA       0.0045
     30 CG         45.1693   48.5623   85.3961 C.3         1 DVA       0.0412
     31 CD         44.9754   48.4685   83.9590 C.2         1 DVA       0.1737
     32 OE1        43.8610   48.2196   83.5018 O.2         1 DVA      -0.3973
     33 NE2        45.9681   48.5891   83.1086 N.am        1 DVA      -0.3009
     34 N          46.8065   52.3927   85.5561 N.am        1 DVA      -0.2625
     35 CA         47.9254   53.1486   86.0685 C.3         1 DVA       0.1369
     36 C          48.7526   53.5176   84.9219 C.2         1 DVA       0.2055
     37 O          48.6949   54.6490   84.4392 O.2         1 DVA      -0.3942
     38 CB         47.4374   54.3406   86.9526 C.3         1 DVA       0.0145
     39 CG         48.4868   55.1727   87.5848 C.2         1 DVA      -0.0027
     40 ND1        49.8161   55.1271   87.3615 N.2         1 DVA      -0.3252
     41 CD2        48.2549   56.1792   88.5118 C.2         1 DVA       0.0291
     42 CE1        50.3800   56.0740   88.1236 C.2         1 DVA       0.0907
     43 NE2        49.4320   56.7086   88.8389 N.pl3       1 DVA      -0.2752
     44 N          49.5553   52.5999   84.4037 N.am        1 DVA      -0.2620
     45 CA         50.5036   52.7301   83.3287 C.3         1 DVA       0.1390
     46 C          49.8266   52.9182   82.0469 C.2         1 DVA       0.2058
     47 O          49.6111   54.0474   81.6249 O.2         1 DVA      -0.3942
     48 CB         51.6145   53.7864   83.6482 C.3         1 DVA       0.0163
     49 CG         52.8906   53.5569   82.9088 C.ar        1 DVA      -0.0493
     50 CD1        53.7207   52.4653   83.2528 C.ar        1 DVA      -0.0685
     51 CD2        53.3119   54.4238   81.8730 C.ar        1 DVA      -0.0685
     52 CE1        54.9249   52.2319   82.5785 C.ar        1 DVA      -0.0398
     53 CE2        54.5174   54.1892   81.1876 C.ar        1 DVA      -0.0398
     54 CZ         55.3308   53.0929   81.5317 C.ar        1 DVA       0.0805
     55 OH         56.4791   52.8462   80.8645 O.3         1 DVA      -0.3376
     56 N          49.4269   51.8470   81.3679 N.am        1 DVA      -0.2620
     57 CA         48.7885   51.8131   80.0740 C.3         1 DVA       0.1423
     58 C          49.7013   51.3556   79.0144 C.2         1 DVA       0.2051
     59 O          49.2807   51.3900   77.8687 O.2         1 DVA      -0.3943
     60 CB         47.5155   50.9112   80.1885 C.3         1 DVA       0.0406
     61 CG         46.3756   51.6339   80.7987 C.2         1 DVA       0.0393
     62 OD1        45.9288   51.3153   82.0344 O.co2       1 DVA      -0.5688
     63 OD2        45.7591   52.6287   80.1174 O.co2       1 DVA      -0.5688
     64 N          50.9561   50.9911   79.2832 N.am        1 DVA      -0.2671
     65 CA         52.0499   50.6020   78.4240 C.3         1 DVA       0.1173
     66 C          52.4135   49.1949   78.6963 C.2         1 DVA       0.0623
     67 O          52.3386   48.7048   79.9510 O.co2       1 DVA      -0.5665
     68 OXT        53.2628   48.5465   77.8726 O.co2       1 DVA      -0.5665
     69 CB         51.9350   50.9243   76.9038 C.3         1 DVA       0.0789
     70 OG         50.7787   50.3694   76.2891 O.3         1 DVA      -0.3910
     71 H1         38.4583   58.6945   88.6699 H           1 DVA       0.2015
     72 H2         38.8006   59.1812   90.2309 H           1 DVA       0.2015
     73 H3         38.9677   57.5652   89.7929 H           1 DVA       0.2015
     74 H4         40.4489   59.7140   88.5265 H           1 DVA       0.1101
     75 H5         40.5392   56.7250   88.3804 H           1 DVA       0.0376
     76 H6         40.6634   57.0911   85.9759 H           1 DVA       0.0236
     77 H7         40.8642   58.8458   86.2137 H           1 DVA       0.0236
     78 H8         39.3363   58.0494   86.6481 H           1 DVA       0.0236
     79 H9         42.8582   57.1076   89.0223 H           1 DVA       0.0236
     80 H10        43.0197   58.4158   87.8077 H           1 DVA       0.0236
     81 H11        42.7767   56.7112   87.2768 H           1 DVA       0.0236
     82 H12        39.8229   56.9954   91.5049 H           1 DVA       0.0802
     83 H13        41.2557   55.5383   93.3564 H           1 DVA       0.0313
     84 H14        40.4463   57.0815   93.7061 H           1 DVA       0.0313
     85 H15        43.3915   56.6335   93.0608 H           1 DVA       0.0287
     86 H16        42.6648   57.6101   94.3705 H           1 DVA       0.0287
     87 H17        42.1468   59.3725   92.8926 H           1 DVA       0.0524
     88 H18        43.4898   58.6736   91.9392 H           1 DVA       0.0524
     89 H19        39.5255   54.9839   90.6843 H           1 DVA       0.1881
     90 H20        39.7999   53.0428   89.6628 H           1 DVA       0.0763
     91 H21        41.5392   53.1306   89.9777 H           1 DVA       0.0763
     92 H22        42.6683   53.2903   88.0609 H           1 DVA       0.1884
     93 H23        42.4409   55.0962   86.0611 H           1 DVA       0.0823
     94 H24        40.2784   54.1557   85.3177 H           1 DVA       0.0606
     95 H25        40.9665   52.5202   85.2487 H           1 DVA       0.0606
     96 H26        41.7041   54.8124   83.7539 H           1 DVA       0.2097
     97 H27        42.8292   51.5810   86.3368 H           1 DVA       0.1883
     98 H28        44.8165   51.1680   84.5619 H           1 DVA       0.0801
     99 H29        43.3008   49.5295   85.8790 H           1 DVA       0.0337
    100 H30        44.4880   49.6087   87.1659 H           1 DVA       0.0337
    101 H31        44.8334   47.6194   85.8320 H           1 DVA       0.0504
    102 H32        46.2327   48.6668   85.6314 H           1 DVA       0.0504
    103 H33        45.8035   48.5035   82.1564 H           1 DVA       0.1814
    104 H34        46.8778   48.7527   83.4274 H           1 DVA       0.1814
    105 H35        46.6166   52.4955   84.6064 H           1 DVA       0.1885
    106 H36        48.5244   52.4898   86.7099 H           1 DVA       0.0817
    107 H37        46.8295   53.9458   87.7702 H           1 DVA       0.0420
    108 H38        46.7937   54.9947   86.3580 H           1 DVA       0.0420
    109 H39        47.3461   56.4575   88.8922 H           1 DVA       0.0729
    110 H40        51.3799   56.2801   88.1642 H           1 DVA       0.1199
    111 H41        49.5809   57.4330   89.4619 H           1 DVA       0.2361
    112 H42        49.5279   51.7256   84.8359 H           1 DVA       0.1885
    113 H43        51.0092   51.7586   83.3047 H           1 DVA       0.0821
    114 H44        51.8310   53.7579   84.7191 H           1 DVA       0.0453
    115 H45        51.2274   54.7872   83.4420 H           1 DVA       0.0453
    116 H46        53.4436   51.8250   84.0071 H           1 DVA       0.0530
    117 H47        52.7371   55.2257   81.5996 H           1 DVA       0.0530
    118 H48        55.5124   51.4378   82.8381 H           1 DVA       0.0525
    119 H49        54.8074   54.8197   80.4377 H           1 DVA       0.0525
    120 H50        56.3290   53.1629   79.9446 H           1 DVA       0.2458
    121 H51        49.6116   50.9863   81.7770 H           1 DVA       0.1884
    122 H52        48.4645   52.8199   79.7824 H           1 DVA       0.0819
    123 H53        47.7451   50.0168   80.7797 H           1 DVA       0.0478
    124 H54        47.1910   50.5781   79.1953 H           1 DVA       0.0478
    125 H55        51.1856   50.9946   80.2268 H           1 DVA       0.1876
    126 H56        52.8849   51.1986   78.7812 H           1 DVA       0.0749
    127 H57        52.8222   50.5505   76.3801 H           1 DVA       0.0599
    128 H58        51.9084   52.0068   76.7594 H           1 DVA       0.0599
    129 H59        50.8707   49.3952   76.3881 H           1 DVA       0.2096
@<TRIPOS>BOND
     1     1     2   1
     2     2     3   1
     3     2     6   1
     4     3     4   1
     5     3     5   1
     6     6     7   2
     7     6     8  am
     8     8     9   1
     9     8    12   1
    10     9    10   1
    11     9    13   1
    12    10    11   1
    13    11    12   1
    14    13    14   2
    15    13    15  am
    16    15    16   1
    17    16    17   1
    18    17    18   2
    19    17    19  am
    20    19    20   1
    21    20    21   1
    22    20    23   1
    23    21    22   2
    24    21    25  am
    25    23    24   1
    26    25    26   1
    27    26    27   1
    28    26    29   1
    29    27    28   2
    30    27    34  am
    31    29    30   1
    32    30    31   1
    33    31    32   2
    34    31    33  am
    35    34    35   1
    36    35    36   1
    37    35    38   1
    38    36    37   2
    39    36    44  am
    40    38    39   1
    41    39    40   1
    42    39    41   2
    43    40    42   2
    44    41    43   1
    45    42    43   1
    46    44    45   1
    47    45    46   1
    48    45    48   1
    49    46    47   2
    50    46    56  am
    51    48    49   1
    52    49    50  ar
    53    49    51  ar
    54    50    52  ar
    55    51    53  ar
    56    52    54  ar
    57    53    54  ar
    58    54    55   1
    59    56    57   1
    60    57    58   1
    61    57    60   1
    62    58    59   2
    63    58    64  am
    64    60    61   1
    65    61    62  ar
    66    61    63  ar
    67    64    65   1
    68    65    66   1
    69    65    69   1
    70    66    67  ar
    71    66    68  ar
    72    69    70   1
    73     1    71   1
    74     1    72   1
    75     1    73   1
    76     2    74   1
    77     3    75   1
    78     4    76   1
    79     4    77   1
    80     4    78   1
    81     5    79   1
    82     5    80   1
    83     5    81   1
    84     9    82   1
    85    10    83   1
    86    10    84   1
    87    11    85   1
    88    11    86   1
    89    12    87   1
    90    12    88   1
    91    15    89   1
    92    16    90   1
    93    16    91   1
    94    19    92   1
    95    20    93   1
    96    23    94   1
    97    23    95   1
    98    24    96   1
    99    25    97   1
   100    26    98   1
   101    29    99   1
   102    29   100   1
   103    30   101   1
   104    30   102   1
   105    33   103   1
   106    33   104   1
   107    34   105   1
   108    35   106   1
   109    38   107   1
   110    38   108   1
   111    41   109   1
   112    42   110   1
   113    43   111   1
   114    44   112   1
   115    45   113   1
   116    48   114   1
   117    48   115   1
   118    50   116   1
   119    51   117   1
   120    52   118   1
   121    53   119   1
   122    55   120   1
   123    56   121   1
   124    57   122   1
   125    60   123   1
   126    60   124   1
   127    64   125   1
   128    65   126   1
   129    69   127   1
   130    69   128   1
   131    70   129   1
@<TRIPOS>SUBSTRUCTURE
     1  DVA      2

