@<TRIPOS>MOLECULE
1zea_ligand_017
   129   131
SMALL
GAST_HUCK
****
This file was generated by PARSER (from files_GN.cpp)

@<TRIPOS>ATOM
      1 N          39.3317   56.2438   93.6613 N.4         1 DVA       0.2381
      2 CA         40.7251   56.7208   93.5573 C.3         1 DVA       0.0675
      3 CB         41.4902   56.5465   94.9173 C.3         1 DVA       0.0139
      4 CG1        41.8151   55.0526   95.2144 C.3         1 DVA      -0.0553
      5 CG2        42.8067   57.3765   94.9808 C.3         1 DVA      -0.0553
      6 C          40.7056   58.1067   93.0616 C.2         1 DVA       0.2295
      7 O          40.1320   58.9149   93.7827 O.2         1 DVA      -0.3905
      8 N          41.2882   58.5481   91.9277 N.am        1 DVA      -0.2471
      9 CA         41.9322   57.7148   90.9382 C.3         1 DVA       0.1339
     10 CB         42.7352   58.7064   90.0618 C.3         1 DVA      -0.0104
     11 CG         41.9207   60.0010   90.1409 C.3         1 DVA      -0.0281
     12 CD         41.2854   59.9361   91.5437 C.3         1 DVA       0.0371
     13 C          40.9748   56.9283   90.1593 C.2         1 DVA       0.2039
     14 O          39.7922   57.2519   90.1389 O.2         1 DVA      -0.3944
     15 N          41.4101   55.9062   89.4393 N.am        1 DVA      -0.2664
     16 CA         40.6411   55.0995   88.5360 C.3         1 DVA       0.1201
     17 C          40.9543   55.3741   87.1432 C.2         1 DVA       0.2008
     18 O          41.6801   56.3143   86.8408 O.2         1 DVA      -0.3947
     19 N          40.4531   54.5858   86.1991 N.am        1 DVA      -0.2618
     20 CA         40.6744   54.6982   84.7803 C.3         1 DVA       0.1539
     21 C          42.0097   54.2403   84.4368 C.2         1 DVA       0.2062
     22 O          42.6687   54.8837   83.6272 O.2         1 DVA      -0.3943
     23 CB         39.5858   53.9259   83.9874 C.3         1 DVA       0.0843
     24 OG         39.3758   54.4820   82.6881 O.3         1 DVA      -0.3903
     25 N          42.5412   53.2238   85.1040 N.am        1 DVA      -0.2635
     26 CA         43.9152   52.8018   85.0688 C.3         1 DVA       0.1330
     27 C          44.3916   52.7215   86.4493 C.2         1 DVA       0.2041
     28 O          45.3386   53.4239   86.7857 O.2         1 DVA      -0.3944
     29 CB         44.0579   51.4622   84.2787 C.3         1 DVA       0.0045
     30 CG         43.5190   51.5102   82.8186 C.3         1 DVA       0.0412
     31 CD         43.8643   52.7116   82.0701 C.2         1 DVA       0.1737
     32 OE1        43.0138   53.3289   81.4380 O.2         1 DVA      -0.3973
     33 NE2        45.0969   53.1604   82.0091 N.am        1 DVA      -0.3009
     34 N          43.7911   51.9378   87.3428 N.am        1 DVA      -0.2625
     35 CA         44.1624   51.7357   88.7264 C.3         1 DVA       0.1369
     36 C          45.6078   51.5137   88.8484 C.2         1 DVA       0.2055
     37 O          46.2640   52.0065   89.7630 O.2         1 DVA      -0.3942
     38 CB         43.5172   52.8389   89.6506 C.3         1 DVA       0.0145
     39 CG         42.4775   52.3518   90.5896 C.2         1 DVA      -0.0027
     40 ND1        42.1730   52.8950   91.7841 N.2         1 DVA      -0.3252
     41 CD2        41.5734   51.3179   90.3659 C.2         1 DVA       0.0291
     42 CE1        41.1238   52.2162   92.2829 C.2         1 DVA       0.0907
     43 NE2        40.7596   51.2550   91.4237 N.pl3       1 DVA      -0.2752
     44 N          46.1981   50.7292   87.9606 N.am        1 DVA      -0.2620
     45 CA         47.5901   50.3531   87.8946 C.3         1 DVA       0.1390
     46 C          48.0779   49.7917   89.1561 C.2         1 DVA       0.2058
     47 O          47.3024   49.1805   89.8827 O.2         1 DVA      -0.3942
     48 CB         47.9428   49.3898   86.7008 C.3         1 DVA       0.0163
     49 CG         46.8997   49.1532   85.6603 C.ar        1 DVA      -0.0493
     50 CD1        47.1417   49.4123   84.2918 C.ar        1 DVA      -0.0685
     51 CD2        45.6711   48.5444   86.0194 C.ar        1 DVA      -0.0685
     52 CE1        46.1659   49.1306   83.3204 C.ar        1 DVA      -0.0398
     53 CE2        44.6948   48.2560   85.0518 C.ar        1 DVA      -0.0398
     54 CZ         44.9370   48.5561   83.7006 C.ar        1 DVA       0.0805
     55 OH         43.9641   48.3247   82.7886 O.3         1 DVA      -0.3376
     56 N          49.3715   49.8706   89.4530 N.am        1 DVA      -0.2620
     57 CA         50.0366   49.3852   90.6412 C.3         1 DVA       0.1423
     58 C          50.8544   48.1966   90.3734 C.2         1 DVA       0.2051
     59 O          50.8388   47.6863   89.2533 O.2         1 DVA      -0.3943
     60 CB         50.8688   50.5730   91.2356 C.3         1 DVA       0.0406
     61 CG         50.9965   50.5609   92.7071 C.2         1 DVA       0.0393
     62 OD1        50.3653   51.4942   93.4586 O.co2       1 DVA      -0.5688
     63 OD2        51.8672   49.7308   93.3248 O.co2       1 DVA      -0.5688
     64 N          51.5001   47.6150   91.3746 N.am        1 DVA      -0.2671
     65 CA         52.3370   46.4387   91.4100 C.3         1 DVA       0.1173
     66 C          51.5699   45.3854   92.1079 C.2         1 DVA       0.0623
     67 O          50.4274   44.8929   91.5756 O.co2       1 DVA      -0.5665
     68 OXT        51.9441   44.9389   93.3264 O.co2       1 DVA      -0.5665
     69 CB         52.9366   45.8839   90.0872 C.3         1 DVA       0.0789
     70 OG         53.8940   46.7947   89.5556 O.3         1 DVA      -0.3910
     71 H1         39.3216   55.2705   93.9688 H           1 DVA       0.2015
     72 H2         38.8744   56.2983   92.7472 H           1 DVA       0.2015
     73 H3         38.8136   56.8138   94.3334 H           1 DVA       0.2015
     74 H4         41.1970   56.0529   92.8391 H           1 DVA       0.1101
     75 H5         40.8410   56.9033   95.7233 H           1 DVA       0.0376
     76 H6         42.2949   54.9528   96.1898 H           1 DVA       0.0236
     77 H7         42.4870   54.6479   94.4555 H           1 DVA       0.0236
     78 H8         40.9064   54.4493   95.2315 H           1 DVA       0.0236
     79 H9         42.5924   58.4449   94.9282 H           1 DVA       0.0236
     80 H10        43.4678   57.1123   94.1531 H           1 DVA       0.0236
     81 H11        43.3335   57.1942   95.9207 H           1 DVA       0.0236
     82 H12        42.6575   57.0488   91.4185 H           1 DVA       0.0802
     83 H13        42.8685   58.3746   89.0285 H           1 DVA       0.0313
     84 H14        43.7238   58.8763   90.5007 H           1 DVA       0.0313
     85 H15        41.1456   59.9962   89.3680 H           1 DVA       0.0287
     86 H16        42.5495   60.8875   90.0122 H           1 DVA       0.0287
     87 H17        41.8750   60.5243   92.2537 H           1 DVA       0.0524
     88 H18        40.2676   60.3347   91.5062 H           1 DVA       0.0524
     89 H19        42.3610   55.7226   89.4789 H           1 DVA       0.1881
     90 H20        39.5652   55.2294   88.6867 H           1 DVA       0.0763
     91 H21        40.8737   54.0562   88.7540 H           1 DVA       0.0763
     92 H22        39.8717   53.8688   86.4921 H           1 DVA       0.1884
     93 H23        40.5525   55.7532   84.5209 H           1 DVA       0.0823
     94 H24        38.6345   53.9828   84.5234 H           1 DVA       0.0606
     95 H25        39.8497   52.8704   83.8822 H           1 DVA       0.0606
     96 H26        40.2664   54.5484   82.2818 H           1 DVA       0.2097
     97 H27        41.9600   52.7474   85.7191 H           1 DVA       0.1883
     98 H28        44.5375   53.5356   84.5396 H           1 DVA       0.0801
     99 H29        43.5107   50.6730   84.8014 H           1 DVA       0.0337
    100 H30        45.1134   51.1634   84.2504 H           1 DVA       0.0337
    101 H31        42.4287   51.3999   82.8483 H           1 DVA       0.0504
    102 H32        43.9136   50.6368   82.2884 H           1 DVA       0.0504
    103 H33        45.3039   53.9423   81.4735 H           1 DVA       0.1814
    104 H34        45.8027   52.7250   82.5139 H           1 DVA       0.1814
    105 H35        43.0191   51.4351   87.0301 H           1 DVA       0.1885
    106 H36        43.7073   50.7765   88.9934 H           1 DVA       0.0817
    107 H37        43.0313   53.5971   89.0331 H           1 DVA       0.0420
    108 H38        44.2755   53.3655   90.2338 H           1 DVA       0.0420
    109 H39        41.5335   50.7148   89.5433 H           1 DVA       0.0729
    110 H40        40.6612   52.4126   93.1726 H           1 DVA       0.1199
    111 H41        40.0239   50.6301   91.5493 H           1 DVA       0.2361
    112 H42        45.6201   50.4120   87.2543 H           1 DVA       0.1885
    113 H43        48.1349   51.2900   87.7236 H           1 DVA       0.0821
    114 H44        48.2253   48.4003   87.0765 H           1 DVA       0.0453
    115 H45        48.8481   49.7803   86.2259 H           1 DVA       0.0453
    116 H46        48.0235   49.8327   83.9927 H           1 DVA       0.0530
    117 H47        45.4878   48.3029   86.9954 H           1 DVA       0.0530
    118 H48        46.3565   49.3316   82.3368 H           1 DVA       0.0525
    119 H49        43.8140   47.8193   85.3385 H           1 DVA       0.0525
    120 H50        44.4048   48.2794   81.9201 H           1 DVA       0.2458
    121 H51        49.9429   50.3103   88.7994 H           1 DVA       0.1884
    122 H52        49.2826   49.0898   91.3824 H           1 DVA       0.0819
    123 H53        50.3860   51.5192   90.9641 H           1 DVA       0.0478
    124 H54        51.8709   50.6007   90.7982 H           1 DVA       0.0478
    125 H55        51.3766   48.0374   92.2393 H           1 DVA       0.1876
    126 H56        53.1896   46.7047   92.0411 H           1 DVA       0.0749
    127 H57        52.1464   45.7154   89.3476 H           1 DVA       0.0599
    128 H58        53.4434   44.9362   90.2801 H           1 DVA       0.0599
    129 H59        54.3355   46.2890   88.8402 H           1 DVA       0.2096
@<TRIPOS>BOND
     1     1     2   1
     2     2     3   1
     3     2     6   1
     4     3     4   1
     5     3     5   1
     6     6     7   2
     7     6     8  am
     8     8     9   1
     9     8    12   1
    10     9    10   1
    11     9    13   1
    12    10    11   1
    13    11    12   1
    14    13    14   2
    15    13    15  am
    16    15    16   1
    17    16    17   1
    18    17    18   2
    19    17    19  am
    20    19    20   1
    21    20    21   1
    22    20    23   1
    23    21    22   2
    24    21    25  am
    25    23    24   1
    26    25    26   1
    27    26    27   1
    28    26    29   1
    29    27    28   2
    30    27    34  am
    31    29    30   1
    32    30    31   1
    33    31    32   2
    34    31    33  am
    35    34    35   1
    36    35    36   1
    37    35    38   1
    38    36    37   2
    39    36    44  am
    40    38    39   1
    41    39    40   1
    42    39    41   2
    43    40    42   2
    44    41    43   1
    45    42    43   1
    46    44    45   1
    47    45    46   1
    48    45    48   1
    49    46    47   2
    50    46    56  am
    51    48    49   1
    52    49    50  ar
    53    49    51  ar
    54    50    52  ar
    55    51    53  ar
    56    52    54  ar
    57    53    54  ar
    58    54    55   1
    59    56    57   1
    60    57    58   1
    61    57    60   1
    62    58    59   2
    63    58    64  am
    64    60    61   1
    65    61    62  ar
    66    61    63  ar
    67    64    65   1
    68    65    66   1
    69    65    69   1
    70    66    67  ar
    71    66    68  ar
    72    69    70   1
    73     1    71   1
    74     1    72   1
    75     1    73   1
    76     2    74   1
    77     3    75   1
    78     4    76   1
    79     4    77   1
    80     4    78   1
    81     5    79   1
    82     5    80   1
    83     5    81   1
    84     9    82   1
    85    10    83   1
    86    10    84   1
    87    11    85   1
    88    11    86   1
    89    12    87   1
    90    12    88   1
    91    15    89   1
    92    16    90   1
    93    16    91   1
    94    19    92   1
    95    20    93   1
    96    23    94   1
    97    23    95   1
    98    24    96   1
    99    25    97   1
   100    26    98   1
   101    29    99   1
   102    29   100   1
   103    30   101   1
   104    30   102   1
   105    33   103   1
   106    33   104   1
   107    34   105   1
   108    35   106   1
   109    38   107   1
   110    38   108   1
   111    41   109   1
   112    42   110   1
   113    43   111   1
   114    44   112   1
   115    45   113   1
   116    48   114   1
   117    48   115   1
   118    50   116   1
   119    51   117   1
   120    52   118   1
   121    53   119   1
   122    55   120   1
   123    56   121   1
   124    57   122   1
   125    60   123   1
   126    60   124   1
   127    64   125   1
   128    65   126   1
   129    69   127   1
   130    69   128   1
   131    70   129   1
@<TRIPOS>SUBSTRUCTURE
     1  DVA      2

