@<TRIPOS>MOLECULE
1zea_ligand_052
   129   131
SMALL
GAST_HUCK
****
This file was generated by PARSER (from files_GN.cpp)

@<TRIPOS>ATOM
      1 N          38.7025   65.2257   98.8024 N.4         1 DVA       0.2381
      2 CA         38.9082   65.8762   97.4943 C.3         1 DVA       0.0675
      3 CB         39.6777   67.2358   97.6296 C.3         1 DVA       0.0139
      4 CG1        41.1252   67.0429   98.1688 C.3         1 DVA      -0.0553
      5 CG2        39.7323   68.0244   96.2856 C.3         1 DVA      -0.0553
      6 C          37.5961   66.0115   96.8491 C.2         1 DVA       0.2295
      7 O          36.7494   66.6044   97.5137 O.2         1 DVA      -0.3905
      8 N          37.2693   65.5869   95.6134 N.am        1 DVA      -0.2471
      9 CA         38.1401   64.8866   94.6958 C.3         1 DVA       0.1339
     10 CB         37.4231   64.9765   93.3252 C.3         1 DVA      -0.0104
     11 CG         35.9396   65.1295   93.6839 C.3         1 DVA      -0.0281
     12 CD         35.9747   65.8502   95.0401 C.3         1 DVA       0.0371
     13 C          38.3936   63.5043   95.1099 C.2         1 DVA       0.2039
     14 O          37.4468   62.7353   95.2135 O.2         1 DVA      -0.3944
     15 N          39.6312   63.0966   95.3676 N.am        1 DVA      -0.2664
     16 CA         40.0209   61.7768   95.7701 C.3         1 DVA       0.1201
     17 C          39.6986   60.7235   94.8267 C.2         1 DVA       0.2008
     18 O          39.5106   61.0096   93.6433 O.2         1 DVA      -0.3947
     19 N          39.6249   59.4681   95.2462 N.am        1 DVA      -0.2618
     20 CA         39.2667   58.3225   94.4543 C.3         1 DVA       0.1539
     21 C          40.3298   57.9572   93.5182 C.2         1 DVA       0.2062
     22 O          41.4237   57.6235   93.9494 O.2         1 DVA      -0.3943
     23 CB         38.8518   57.1266   95.3501 C.3         1 DVA       0.0843
     24 OG         39.9586   56.4934   95.9865 O.3         1 DVA      -0.3903
     25 N          40.1169   58.0938   92.2158 N.am        1 DVA      -0.2635
     26 CA         41.0459   57.9242   91.1292 C.3         1 DVA       0.1330
     27 C          40.4668   56.9623   90.2002 C.2         1 DVA       0.2041
     28 O          39.4399   57.2620   89.5985 O.2         1 DVA      -0.3944
     29 CB         41.3484   59.3414   90.5359 C.3         1 DVA       0.0045
     30 CG         41.5219   59.4799   88.9937 C.3         1 DVA       0.0412
     31 CD         40.2896   59.3291   88.2309 C.2         1 DVA       0.1737
     32 OE1        40.3104   58.9015   87.0764 O.2         1 DVA      -0.3973
     33 NE2        39.1270   59.6821   88.7317 N.am        1 DVA      -0.3009
     34 N          41.0553   55.7948   89.9806 N.am        1 DVA      -0.2625
     35 CA         40.6662   54.7565   89.0589 C.3         1 DVA       0.1369
     36 C          41.5502   54.6950   87.8974 C.2         1 DVA       0.2055
     37 O          42.5722   55.3849   87.8713 O.2         1 DVA      -0.3942
     38 CB         40.5703   53.3984   89.8220 C.3         1 DVA       0.0145
     39 CG         41.8491   52.9020   90.3725 C.2         1 DVA      -0.0027
     40 ND1        42.5583   53.4936   91.3517 N.2         1 DVA      -0.3252
     41 CD2        42.5336   51.7451   89.9998 C.2         1 DVA       0.0291
     42 CE1        43.6509   52.7424   91.5676 C.2         1 DVA       0.0907
     43 NE2        43.6353   51.6777   90.7497 N.pl3       1 DVA      -0.2752
     44 N          41.2369   53.9152   86.8743 N.am        1 DVA      -0.2620
     45 CA         41.9243   53.7953   85.6158 C.3         1 DVA       0.1390
     46 C          42.5823   52.4949   85.5697 C.2         1 DVA       0.2058
     47 O          42.2483   51.6373   84.7485 O.2         1 DVA      -0.3942
     48 CB         40.9141   54.1094   84.4671 C.3         1 DVA       0.0163
     49 CG         41.4070   54.0011   83.0564 C.ar        1 DVA      -0.0493
     50 CD1        40.5353   53.5602   82.0275 C.ar        1 DVA      -0.0685
     51 CD2        42.7173   54.3976   82.6889 C.ar        1 DVA      -0.0685
     52 CE1        40.9568   53.5162   80.6875 C.ar        1 DVA      -0.0398
     53 CE2        43.1512   54.3229   81.3529 C.ar        1 DVA      -0.0398
     54 CZ         42.2727   53.8912   80.3461 C.ar        1 DVA       0.0805
     55 OH         42.6651   53.8479   79.0476 O.3         1 DVA      -0.3376
     56 N          43.5956   52.2721   86.3945 N.am        1 DVA      -0.2620
     57 CA         44.4405   51.1129   86.4730 C.3         1 DVA       0.1423
     58 C          45.0930   50.8478   85.1891 C.2         1 DVA       0.2051
     59 O          45.8190   51.7085   84.7138 O.2         1 DVA      -0.3943
     60 CB         45.4831   51.3250   87.6106 C.3         1 DVA       0.0406
     61 CG         46.5568   50.3173   87.6655 C.2         1 DVA       0.0393
     62 OD1        46.7507   49.5639   88.7747 O.co2       1 DVA      -0.5688
     63 OD2        47.5560   50.3562   86.7523 O.co2       1 DVA      -0.5688
     64 N          44.8745   49.6988   84.5614 N.am        1 DVA      -0.2671
     65 CA         45.4164   49.2695   83.3047 C.3         1 DVA       0.1173
     66 C          44.8751   50.0884   82.1946 C.2         1 DVA       0.0623
     67 O          43.5419   50.1413   81.9936 O.co2       1 DVA      -0.5665
     68 OXT        45.6644   50.8655   81.4180 O.co2       1 DVA      -0.5665
     69 CB         46.9699   49.1834   83.3415 C.3         1 DVA       0.0789
     70 OG         47.4655   48.2127   82.4236 O.3         1 DVA      -0.3910
     71 H1         39.6049   64.9975   99.2233 H           1 DVA       0.2015
     72 H2         38.1697   64.3631   98.6801 H           1 DVA       0.2015
     73 H3         38.1898   65.8543   99.4247 H           1 DVA       0.2015
     74 H4         39.5522   65.2002   96.9352 H           1 DVA       0.1101
     75 H5         39.1485   67.8637   98.3548 H           1 DVA       0.0376
     76 H6         41.6400   68.0030   98.2411 H           1 DVA       0.0236
     77 H7         41.6981   66.3905   97.5040 H           1 DVA       0.0236
     78 H8         41.1111   66.6008   99.1659 H           1 DVA       0.0236
     79 H9         38.7263   68.2569   95.9322 H           1 DVA       0.0236
     80 H10        40.2443   67.4393   95.5187 H           1 DVA       0.0236
     81 H11        40.2618   68.9693   96.4170 H           1 DVA       0.0236
     82 H12        39.0800   65.4364   94.5954 H           1 DVA       0.0802
     83 H13        37.5969   64.1066   92.6837 H           1 DVA       0.0313
     84 H14        37.7543   65.8708   92.7858 H           1 DVA       0.0313
     85 H15        35.4761   64.1451   93.7953 H           1 DVA       0.0287
     86 H16        35.3922   65.6995   92.9280 H           1 DVA       0.0287
     87 H17        35.8456   66.9270   94.8947 H           1 DVA       0.0524
     88 H18        35.1714   65.4747   95.6805 H           1 DVA       0.0524
     89 H19        40.3381   63.7547   95.2995 H           1 DVA       0.1881
     90 H20        39.5667   61.5643   96.7419 H           1 DVA       0.0763
     91 H21        41.1026   61.7780   95.9089 H           1 DVA       0.0763
     92 H22        39.7755   59.3153   96.1910 H           1 DVA       0.1884
     93 H23        38.3663   58.5954   93.8948 H           1 DVA       0.0823
     94 H24        38.3347   56.3790   94.7437 H           1 DVA       0.0606
     95 H25        38.1601   57.4682   96.1213 H           1 DVA       0.0606
     96 H26        40.3052   57.1500   96.6260 H           1 DVA       0.2097
     97 H27        39.2382   58.4231   91.9642 H           1 DVA       0.1883
     98 H28        41.9981   57.5218   91.4934 H           1 DVA       0.0801
     99 H29        42.2804   59.6787   90.9962 H           1 DVA       0.0337
    100 H30        40.5830   60.0518   90.8616 H           1 DVA       0.0337
    101 H31        42.2812   58.7733   88.6542 H           1 DVA       0.0504
    102 H32        41.8900   60.4816   88.7867 H           1 DVA       0.0504
    103 H33        38.3044   59.5207   88.2434 H           1 DVA       0.1814
    104 H34        39.0696   60.0144   89.6434 H           1 DVA       0.1814
    105 H35        41.8691   55.6343   90.4772 H           1 DVA       0.1885
    106 H36        39.6654   54.9777   88.6724 H           1 DVA       0.0817
    107 H37        40.1524   52.6458   89.1498 H           1 DVA       0.0420
    108 H38        39.8640   53.5058   90.6523 H           1 DVA       0.0420
    109 H39        42.2483   51.0682   89.2889 H           1 DVA       0.0729
    110 H40        44.3775   52.9505   92.2513 H           1 DVA       0.1199
    111 H41        44.3118   50.9822   90.7121 H           1 DVA       0.2361
    112 H42        40.4308   53.3803   86.9620 H           1 DVA       0.1885
    113 H43        42.7123   54.5524   85.5480 H           1 DVA       0.0821
    114 H44        40.5669   55.1412   84.5927 H           1 DVA       0.0453
    115 H45        40.0381   53.4673   84.6010 H           1 DVA       0.0453
    116 H46        39.5727   53.2817   82.2502 H           1 DVA       0.0530
    117 H47        43.3737   54.7459   83.3862 H           1 DVA       0.0530
    118 H48        40.3056   53.2163   79.9577 H           1 DVA       0.0525
    119 H49        44.1028   54.6087   81.1178 H           1 DVA       0.0525
    120 H50        43.6422   53.7598   79.0564 H           1 DVA       0.2458
    121 H51        43.8014   52.9915   87.0190 H           1 DVA       0.1884
    122 H52        43.8064   50.2675   86.7669 H           1 DVA       0.0819
    123 H53        44.9556   51.3163   88.5707 H           1 DVA       0.0478
    124 H54        45.9418   52.3137   87.5133 H           1 DVA       0.0478
    125 H55        44.2815   49.0720   85.0035 H           1 DVA       0.1876
    126 H56        45.0519   48.2526   83.1486 H           1 DVA       0.0749
    127 H57        47.3017   48.8894   84.3402 H           1 DVA       0.0599
    128 H58        47.4205   50.1505   83.1104 H           1 DVA       0.0599
    129 H59        46.8905   48.2697   81.6328 H           1 DVA       0.2096
@<TRIPOS>BOND
     1     1     2   1
     2     2     3   1
     3     2     6   1
     4     3     4   1
     5     3     5   1
     6     6     7   2
     7     6     8  am
     8     8     9   1
     9     8    12   1
    10     9    10   1
    11     9    13   1
    12    10    11   1
    13    11    12   1
    14    13    14   2
    15    13    15  am
    16    15    16   1
    17    16    17   1
    18    17    18   2
    19    17    19  am
    20    19    20   1
    21    20    21   1
    22    20    23   1
    23    21    22   2
    24    21    25  am
    25    23    24   1
    26    25    26   1
    27    26    27   1
    28    26    29   1
    29    27    28   2
    30    27    34  am
    31    29    30   1
    32    30    31   1
    33    31    32   2
    34    31    33  am
    35    34    35   1
    36    35    36   1
    37    35    38   1
    38    36    37   2
    39    36    44  am
    40    38    39   1
    41    39    40   1
    42    39    41   2
    43    40    42   2
    44    41    43   1
    45    42    43   1
    46    44    45   1
    47    45    46   1
    48    45    48   1
    49    46    47   2
    50    46    56  am
    51    48    49   1
    52    49    50  ar
    53    49    51  ar
    54    50    52  ar
    55    51    53  ar
    56    52    54  ar
    57    53    54  ar
    58    54    55   1
    59    56    57   1
    60    57    58   1
    61    57    60   1
    62    58    59   2
    63    58    64  am
    64    60    61   1
    65    61    62  ar
    66    61    63  ar
    67    64    65   1
    68    65    66   1
    69    65    69   1
    70    66    67  ar
    71    66    68  ar
    72    69    70   1
    73     1    71   1
    74     1    72   1
    75     1    73   1
    76     2    74   1
    77     3    75   1
    78     4    76   1
    79     4    77   1
    80     4    78   1
    81     5    79   1
    82     5    80   1
    83     5    81   1
    84     9    82   1
    85    10    83   1
    86    10    84   1
    87    11    85   1
    88    11    86   1
    89    12    87   1
    90    12    88   1
    91    15    89   1
    92    16    90   1
    93    16    91   1
    94    19    92   1
    95    20    93   1
    96    23    94   1
    97    23    95   1
    98    24    96   1
    99    25    97   1
   100    26    98   1
   101    29    99   1
   102    29   100   1
   103    30   101   1
   104    30   102   1
   105    33   103   1
   106    33   104   1
   107    34   105   1
   108    35   106   1
   109    38   107   1
   110    38   108   1
   111    41   109   1
   112    42   110   1
   113    43   111   1
   114    44   112   1
   115    45   113   1
   116    48   114   1
   117    48   115   1
   118    50   116   1
   119    51   117   1
   120    52   118   1
   121    53   119   1
   122    55   120   1
   123    56   121   1
   124    57   122   1
   125    60   123   1
   126    60   124   1
   127    64   125   1
   128    65   126   1
   129    69   127   1
   130    69   128   1
   131    70   129   1
@<TRIPOS>SUBSTRUCTURE
     1  DVA      2

