@<TRIPOS>MOLECULE
1zea_ligand_087
   129   131
SMALL
GAST_HUCK
****
This file was generated by PARSER (from files_GN.cpp)

@<TRIPOS>ATOM
      1 N          48.9564   51.8843   81.9407 N.4         1 DVA       0.2381
      2 CA         49.6715   52.2658   80.6989 C.3         1 DVA       0.0675
      3 CB         50.0176   50.9913   79.8569 C.3         1 DVA       0.0139
      4 CG1        49.7999   51.2378   78.3303 C.3         1 DVA      -0.0553
      5 CG2        51.4335   50.3785   80.1001 C.3         1 DVA      -0.0553
      6 C          50.8066   53.1447   81.0391 C.2         1 DVA       0.2295
      7 O          51.7244   52.5788   81.6288 O.2         1 DVA      -0.3905
      8 N          50.8994   54.4730   80.8171 N.am        1 DVA      -0.2471
      9 CA         49.8675   55.3337   80.2727 C.3         1 DVA       0.1339
     10 CB         50.5384   56.7272   80.1705 C.3         1 DVA      -0.0104
     11 CG         52.0406   56.4317   80.1716 C.3         1 DVA      -0.0281
     12 CD         52.1348   55.1724   81.0358 C.3         1 DVA       0.0371
     13 C          48.6099   55.4176   81.0209 C.2         1 DVA       0.2039
     14 O          48.4539   54.7429   82.0355 O.2         1 DVA      -0.3944
     15 N          47.6594   56.2431   80.5933 N.am        1 DVA      -0.2664
     16 CA         46.3277   56.3686   81.1105 C.3         1 DVA       0.1201
     17 C          46.2575   56.4333   82.5613 C.2         1 DVA       0.2008
     18 O          47.0682   57.1373   83.1526 O.2         1 DVA      -0.3947
     19 N          45.3830   55.6703   83.2031 N.am        1 DVA      -0.2618
     20 CA         45.2538   55.5277   84.6251 C.3         1 DVA       0.1539
     21 C          44.0029   54.8475   84.9287 C.2         1 DVA       0.2062
     22 O          43.6362   53.9087   84.2291 O.2         1 DVA      -0.3943
     23 CB         46.4707   54.7699   85.2256 C.3         1 DVA       0.0843
     24 OG         46.5784   53.4286   84.7517 O.3         1 DVA      -0.3903
     25 N          43.3117   55.1962   86.0104 N.am        1 DVA      -0.2635
     26 CA         42.1441   54.5529   86.5466 C.3         1 DVA       0.1330
     27 C          42.5008   53.9272   87.8128 C.2         1 DVA       0.2041
     28 O          42.9192   54.6380   88.7181 O.2         1 DVA      -0.3944
     29 CB         40.9485   55.5462   86.6556 C.3         1 DVA       0.0045
     30 CG         41.2844   57.0283   87.0216 C.3         1 DVA       0.0412
     31 CD         40.1141   57.8863   87.0058 C.2         1 DVA       0.1737
     32 OE1        39.8703   58.5814   86.0296 O.2         1 DVA      -0.3973
     33 NE2        39.2793   57.9268   88.0181 N.am        1 DVA      -0.3009
     34 N          42.4031   52.6112   87.9552 N.am        1 DVA      -0.2625
     35 CA         42.8496   51.8008   89.0559 C.3         1 DVA       0.1369
     36 C          44.3109   51.7395   89.0693 C.2         1 DVA       0.2055
     37 O          44.9332   52.5681   89.7288 O.2         1 DVA      -0.3942
     38 CB         42.2371   52.1774   90.4456 C.3         1 DVA       0.0145
     39 CG         40.7687   52.3673   90.4263 C.2         1 DVA      -0.0027
     40 ND1        40.1073   53.0821   89.4927 N.2         1 DVA      -0.3252
     41 CD2        39.8308   51.9081   91.3548 C.2         1 DVA       0.0291
     42 CE1        38.8029   53.0720   89.8349 C.2         1 DVA       0.0907
     43 NE2        38.6326   52.3691   90.9710 N.pl3       1 DVA      -0.2752
     44 N          44.9482   50.8770   88.2758 N.am        1 DVA      -0.2620
     45 CA         46.3749   50.7699   88.0841 C.3         1 DVA       0.1390
     46 C          47.1191   50.8957   89.3402 C.2         1 DVA       0.2058
     47 O          46.6991   50.2754   90.3055 O.2         1 DVA      -0.3942
     48 CB         46.7169   49.4161   87.3905 C.3         1 DVA       0.0163
     49 CG         45.9872   49.1895   86.1075 C.ar        1 DVA      -0.0493
     50 CD1        44.9288   48.2513   86.0257 C.ar        1 DVA      -0.0685
     51 CD2        46.3068   49.9281   84.9455 C.ar        1 DVA      -0.0685
     52 CE1        44.2174   48.0521   84.8275 C.ar        1 DVA      -0.0398
     53 CE2        45.5988   49.7358   83.7405 C.ar        1 DVA      -0.0398
     54 CZ         44.5509   48.7941   83.6779 C.ar        1 DVA       0.0805
     55 OH         43.8333   48.5921   82.5430 O.3         1 DVA      -0.3376
     56 N          48.1139   51.7641   89.4376 N.am        1 DVA      -0.2620
     57 CA         48.8576   52.1360   90.6202 C.3         1 DVA       0.1423
     58 C          48.0491   52.7669   91.6581 C.2         1 DVA       0.2051
     59 O          46.8207   52.7034   91.6150 O.2         1 DVA      -0.3943
     60 CB         49.8093   50.9886   91.0989 C.3         1 DVA       0.0406
     61 CG         49.1711   49.8243   91.7406 C.2         1 DVA       0.0393
     62 OD1        49.2780   48.5895   91.1957 O.co2       1 DVA      -0.5688
     63 OD2        48.5485   49.9493   92.9384 O.co2       1 DVA      -0.5688
     64 N          48.6338   53.5503   92.5652 N.am        1 DVA      -0.2671
     65 CA         48.0190   54.3464   93.5938 C.3         1 DVA       0.1173
     66 C          47.1407   55.3918   93.0242 C.2         1 DVA       0.0623
     67 O          45.7923   55.3681   93.1585 O.co2       1 DVA      -0.5665
     68 OXT        47.6823   56.3836   92.2783 O.co2       1 DVA      -0.5665
     69 CB         47.3692   53.4939   94.7236 C.3         1 DVA       0.0789
     70 OG         46.0800   52.9758   94.3905 O.3         1 DVA      -0.3910
     71 H1         48.1360   51.3183   81.7042 H           1 DVA       0.2015
     72 H2         48.6606   52.7252   82.4362 H           1 DVA       0.2015
     73 H3         49.5802   51.3395   82.5419 H           1 DVA       0.2015
     74 H4         48.9153   52.8068   80.1282 H           1 DVA       0.1101
     75 H5         49.3008   50.2055   80.1297 H           1 DVA       0.0376
     76 H6         49.9860   50.3248   77.7613 H           1 DVA       0.0236
     77 H7         50.4691   52.0230   77.9719 H           1 DVA       0.0236
     78 H8         48.7683   51.5508   78.1447 H           1 DVA       0.0236
     79 H9         51.6278   50.2775   81.1675 H           1 DVA       0.0236
     80 H10        52.2141   51.0063   79.6594 H           1 DVA       0.0236
     81 H11        51.5020   49.3861   79.6596 H           1 DVA       0.0236
     82 H12        49.6397   54.9771   79.2618 H           1 DVA       0.0802
     83 H13        50.3081   57.3560   81.0374 H           1 DVA       0.0313
     84 H14        50.2400   57.2539   79.2648 H           1 DVA       0.0313
     85 H15        52.6305   57.2498   80.5906 H           1 DVA       0.0287
     86 H16        52.3809   56.2135   79.1550 H           1 DVA       0.0287
     87 H17        53.0096   54.5923   80.7214 H           1 DVA       0.0524
     88 H18        52.2338   55.4253   82.0962 H           1 DVA       0.0524
     89 H19        47.8805   56.8011   79.8220 H           1 DVA       0.1881
     90 H20        45.7474   55.5268   80.7162 H           1 DVA       0.0763
     91 H21        45.8989   57.2856   80.6993 H           1 DVA       0.0763
     92 H22        44.7985   55.1150   82.6501 H           1 DVA       0.1884
     93 H23        45.2351   56.5285   85.0684 H           1 DVA       0.0823
     94 H24        46.3842   54.7408   86.3129 H           1 DVA       0.0606
     95 H25        47.3954   55.2977   84.9805 H           1 DVA       0.0606
     96 H26        46.7706   53.5034   83.7941 H           1 DVA       0.2097
     97 H27        43.6972   55.8982   86.5588 H           1 DVA       0.1883
     98 H28        41.8086   53.7762   85.8468 H           1 DVA       0.0801
     99 H29        40.2468   55.1552   87.3937 H           1 DVA       0.0337
    100 H30        40.4260   55.5521   85.6920 H           1 DVA       0.0337
    101 H31        42.0167   57.4165   86.3032 H           1 DVA       0.0504
    102 H32        41.7442   57.0791   88.0122 H           1 DVA       0.0504
    103 H33        38.5063   58.5134   87.9858 H           1 DVA       0.1814
    104 H34        39.4301   57.3696   88.7976 H           1 DVA       0.1814
    105 H35        42.0124   52.1172   87.2191 H           1 DVA       0.1885
    106 H36        42.4715   50.7926   88.8362 H           1 DVA       0.0817
    107 H37        42.6753   53.1058   90.8122 H           1 DVA       0.0420
    108 H38        42.4855   51.3967   91.1719 H           1 DVA       0.0420
    109 H39        40.0201   51.3398   92.1898 H           1 DVA       0.0729
    110 H40        38.0578   53.5418   89.3123 H           1 DVA       0.1199
    111 H41        37.7891   52.2150   91.4280 H           1 DVA       0.2361
    112 H42        44.3805   50.2618   87.7635 H           1 DVA       0.1885
    113 H43        46.6598   51.5665   87.3951 H           1 DVA       0.0821
    114 H44        46.5060   48.5935   88.0794 H           1 DVA       0.0453
    115 H45        47.7832   49.3699   87.1656 H           1 DVA       0.0453
    116 H46        44.6598   47.6940   86.8412 H           1 DVA       0.0530
    117 H47        47.0673   50.6117   84.9646 H           1 DVA       0.0530
    118 H48        43.4539   47.3640   84.7903 H           1 DVA       0.0525
    119 H49        45.8441   50.2846   82.9075 H           1 DVA       0.0525
    120 H50        44.4684   48.6747   81.8057 H           1 DVA       0.2458
    121 H51        48.3538   52.2304   88.6190 H           1 DVA       0.1884
    122 H52        49.5188   52.9305   90.2672 H           1 DVA       0.0819
    123 H53        50.5260   51.4013   91.8141 H           1 DVA       0.0478
    124 H54        50.3885   50.6441   90.2344 H           1 DVA       0.0478
    125 H55        49.6003   53.6272   92.5007 H           1 DVA       0.1876
    126 H56        48.8379   54.8823   94.0764 H           1 DVA       0.0749
    127 H57        47.2540   54.1076   95.6235 H           1 DVA       0.0599
    128 H58        48.0216   52.6505   94.9781 H           1 DVA       0.0599
    129 H59        46.2497   52.3347   93.6682 H           1 DVA       0.2096
@<TRIPOS>BOND
     1     1     2   1
     2     2     3   1
     3     2     6   1
     4     3     4   1
     5     3     5   1
     6     6     7   2
     7     6     8  am
     8     8     9   1
     9     8    12   1
    10     9    10   1
    11     9    13   1
    12    10    11   1
    13    11    12   1
    14    13    14   2
    15    13    15  am
    16    15    16   1
    17    16    17   1
    18    17    18   2
    19    17    19  am
    20    19    20   1
    21    20    21   1
    22    20    23   1
    23    21    22   2
    24    21    25  am
    25    23    24   1
    26    25    26   1
    27    26    27   1
    28    26    29   1
    29    27    28   2
    30    27    34  am
    31    29    30   1
    32    30    31   1
    33    31    32   2
    34    31    33  am
    35    34    35   1
    36    35    36   1
    37    35    38   1
    38    36    37   2
    39    36    44  am
    40    38    39   1
    41    39    40   1
    42    39    41   2
    43    40    42   2
    44    41    43   1
    45    42    43   1
    46    44    45   1
    47    45    46   1
    48    45    48   1
    49    46    47   2
    50    46    56  am
    51    48    49   1
    52    49    50  ar
    53    49    51  ar
    54    50    52  ar
    55    51    53  ar
    56    52    54  ar
    57    53    54  ar
    58    54    55   1
    59    56    57   1
    60    57    58   1
    61    57    60   1
    62    58    59   2
    63    58    64  am
    64    60    61   1
    65    61    62  ar
    66    61    63  ar
    67    64    65   1
    68    65    66   1
    69    65    69   1
    70    66    67  ar
    71    66    68  ar
    72    69    70   1
    73     1    71   1
    74     1    72   1
    75     1    73   1
    76     2    74   1
    77     3    75   1
    78     4    76   1
    79     4    77   1
    80     4    78   1
    81     5    79   1
    82     5    80   1
    83     5    81   1
    84     9    82   1
    85    10    83   1
    86    10    84   1
    87    11    85   1
    88    11    86   1
    89    12    87   1
    90    12    88   1
    91    15    89   1
    92    16    90   1
    93    16    91   1
    94    19    92   1
    95    20    93   1
    96    23    94   1
    97    23    95   1
    98    24    96   1
    99    25    97   1
   100    26    98   1
   101    29    99   1
   102    29   100   1
   103    30   101   1
   104    30   102   1
   105    33   103   1
   106    33   104   1
   107    34   105   1
   108    35   106   1
   109    38   107   1
   110    38   108   1
   111    41   109   1
   112    42   110   1
   113    43   111   1
   114    44   112   1
   115    45   113   1
   116    48   114   1
   117    48   115   1
   118    50   116   1
   119    51   117   1
   120    52   118   1
   121    53   119   1
   122    55   120   1
   123    56   121   1
   124    57   122   1
   125    60   123   1
   126    60   124   1
   127    64   125   1
   128    65   126   1
   129    69   127   1
   130    69   128   1
   131    70   129   1
@<TRIPOS>SUBSTRUCTURE
     1  DVA      2

