@<TRIPOS>MOLECULE
1zea_ligand_063
   129   131
SMALL
GAST_HUCK
****
This file was generated by PARSER (from files_GN.cpp)

@<TRIPOS>ATOM
      1 N          39.1587   51.9994   96.2277 N.4         1 DVA       0.2381
      2 CA         40.3786   52.8275   96.2598 C.3         1 DVA       0.0675
      3 CB         41.6855   51.9677   96.4062 C.3         1 DVA       0.0139
      4 CG1        41.6515   50.9113   97.5528 C.3         1 DVA      -0.0553
      5 CG2        42.0655   51.2638   95.0670 C.3         1 DVA      -0.0553
      6 C          40.2161   53.8847   97.2683 C.2         1 DVA       0.2295
      7 O          40.3415   53.5214   98.4336 O.2         1 DVA      -0.3905
      8 N          39.9201   55.1790   97.0346 N.am        1 DVA      -0.2471
      9 CA         39.5609   55.7708   95.7626 C.3         1 DVA       0.1339
     10 CB         39.3497   57.2843   96.0385 C.3         1 DVA      -0.0104
     11 CG         40.0890   57.5257   97.3562 C.3         1 DVA      -0.0281
     12 CD         39.9847   56.1718   98.0745 C.3         1 DVA       0.0371
     13 C          38.3768   55.1729   95.1456 C.2         1 DVA       0.2039
     14 O          37.2908   55.2794   95.7086 O.2         1 DVA      -0.3944
     15 N          38.5022   54.4431   94.0441 N.am        1 DVA      -0.2664
     16 CA         37.4725   53.6640   93.4314 C.3         1 DVA       0.1201
     17 C          38.0397   52.8139   92.4002 C.2         1 DVA       0.2008
     18 O          37.8527   51.6049   92.4613 O.2         1 DVA      -0.3947
     19 N          38.7597   53.3508   91.4187 N.am        1 DVA      -0.2618
     20 CA         39.4036   52.6459   90.3437 C.3         1 DVA       0.1539
     21 C          39.7682   53.6197   89.3196 C.2         1 DVA       0.2062
     22 O          38.9147   53.9392   88.5006 O.2         1 DVA      -0.3943
     23 CB         40.5886   51.7769   90.8616 C.3         1 DVA       0.0843
     24 OG         41.3997   51.3044   89.7901 O.3         1 DVA      -0.3903
     25 N          40.9513   54.2303   89.3388 N.am        1 DVA      -0.2635
     26 CA         41.4023   55.3156   88.5132 C.3         1 DVA       0.1330
     27 C          41.4024   54.9485   87.0940 C.2         1 DVA       0.2041
     28 O          40.3637   55.0166   86.4476 O.2         1 DVA      -0.3944
     29 CB         40.6248   56.6236   88.8558 C.3         1 DVA       0.0045
     30 CG         41.1073   57.8698   88.0493 C.3         1 DVA       0.0412
     31 CD         40.0006   58.6805   87.5922 C.2         1 DVA       0.1737
     32 OE1        39.6255   58.6155   86.4296 O.2         1 DVA      -0.3973
     33 NE2        39.2950   59.3909   88.4435 N.am        1 DVA      -0.3009
     34 N          42.5217   54.5367   86.5203 N.am        1 DVA      -0.2625
     35 CA         42.6776   54.1550   85.1389 C.3         1 DVA       0.1369
     36 C          44.0485   53.6989   84.9554 C.2         1 DVA       0.2055
     37 O          44.4200   52.6863   85.5388 O.2         1 DVA      -0.3942
     38 CB         41.6188   53.0817   84.6922 C.3         1 DVA       0.0145
     39 CG         40.7114   53.5663   83.6349 C.2         1 DVA      -0.0027
     40 ND1        41.0219   53.6257   82.3280 N.2         1 DVA      -0.3252
     41 CD2        39.4096   54.0472   83.7784 C.2         1 DVA       0.0291
     42 CE1        39.9473   54.1109   81.6816 C.2         1 DVA       0.0907
     43 NE2        38.9693   54.3721   82.5601 N.pl3       1 DVA      -0.2752
     44 N          44.8820   54.3944   84.1881 N.am        1 DVA      -0.2620
     45 CA         46.2716   54.1334   83.9471 C.3         1 DVA       0.1390
     46 C          46.7705   55.0180   82.8984 C.2         1 DVA       0.2058
     47 O          47.3882   54.5306   81.9568 O.2         1 DVA      -0.3942
     48 CB         47.1412   54.2930   85.2395 C.3         1 DVA       0.0163
     49 CG         48.4588   53.6146   85.1168 C.ar        1 DVA      -0.0493
     50 CD1        49.4838   54.1475   84.2934 C.ar        1 DVA      -0.0685
     51 CD2        48.6903   52.3751   85.7595 C.ar        1 DVA      -0.0685
     52 CE1        50.7063   53.4678   84.1370 C.ar        1 DVA      -0.0398
     53 CE2        49.9175   51.7042   85.6183 C.ar        1 DVA      -0.0398
     54 CZ         50.9311   52.2455   84.7983 C.ar        1 DVA       0.0805
     55 OH         52.1071   51.5727   84.6759 O.3         1 DVA      -0.3376
     56 N          46.6103   56.3323   83.0014 N.am        1 DVA      -0.2620
     57 CA         47.1639   57.3658   82.1636 C.3         1 DVA       0.1423
     58 C          47.0046   57.0894   80.7391 C.2         1 DVA       0.2051
     59 O          45.8869   56.8178   80.3121 O.2         1 DVA      -0.3943
     60 CB         46.5506   58.7582   82.4997 C.3         1 DVA       0.0406
     61 CG         46.3813   59.0048   83.9431 C.2         1 DVA       0.0393
     62 OD1        45.1688   59.3189   84.4533 O.co2       1 DVA      -0.5688
     63 OD2        47.4471   58.9719   84.7652 O.co2       1 DVA      -0.5688
     64 N          48.0636   57.0994   79.9298 N.am        1 DVA      -0.2671
     65 CA         48.1533   56.6968   78.5507 C.3         1 DVA       0.1173
     66 C          48.5333   55.2615   78.4290 C.2         1 DVA       0.0623
     67 O          48.1406   54.3350   79.3403 O.co2       1 DVA      -0.5665
     68 OXT        49.2636   54.8378   77.3642 O.co2       1 DVA      -0.5665
     69 CB         46.9555   57.0977   77.6367 C.3         1 DVA       0.0789
     70 OG         45.7217   57.2437   78.3295 O.3         1 DVA      -0.3910
     71 H1         39.2376   51.2931   95.4933 H           1 DVA       0.2015
     72 H2         38.3449   52.5869   96.0371 H           1 DVA       0.2015
     73 H3         39.0289   51.5324   97.1275 H           1 DVA       0.2015
     74 H4         40.4404   53.2871   95.2804 H           1 DVA       0.1101
     75 H5         42.5100   52.6554   96.6312 H           1 DVA       0.0376
     76 H6         40.8692   50.1723   97.3755 H           1 DVA       0.0236
     77 H7         41.4743   51.3816   98.5188 H           1 DVA       0.0236
     78 H8         42.6080   50.3881   97.6138 H           1 DVA       0.0236
     79 H9         41.2846   50.5654   94.7597 H           1 DVA       0.0236
     80 H10        43.0034   50.7135   95.1719 H           1 DVA       0.0236
     81 H11        42.2029   52.0013   94.2725 H           1 DVA       0.0236
     82 H12        40.4278   55.6759   95.0985 H           1 DVA       0.0802
     83 H13        38.2924   57.5413   96.1758 H           1 DVA       0.0313
     84 H14        39.7562   57.9030   95.2338 H           1 DVA       0.0313
     85 H15        39.6396   58.3328   97.9395 H           1 DVA       0.0287
     86 H16        41.1377   57.7653   97.1567 H           1 DVA       0.0287
     87 H17        40.8623   56.0451   98.7174 H           1 DVA       0.0524
     88 H18        39.0798   56.1231   98.6878 H           1 DVA       0.0524
     89 H19        39.3956   54.3699   93.6632 H           1 DVA       0.1881
     90 H20        36.7182   54.3246   92.9986 H           1 DVA       0.0763
     91 H21        36.9863   53.0495   94.1963 H           1 DVA       0.0763
     92 H22        38.8036   54.3211   91.4010 H           1 DVA       0.1884
     93 H23        38.6670   51.9664   89.9045 H           1 DVA       0.0823
     94 H24        40.2100   50.9077   91.4030 H           1 DVA       0.0606
     95 H25        41.2147   52.3530   91.5463 H           1 DVA       0.0606
     96 H26        41.5416   50.3516   89.9758 H           1 DVA       0.2097
     97 H27        41.5763   53.9391   90.0209 H           1 DVA       0.1883
     98 H28        42.4426   55.5039   88.8071 H           1 DVA       0.0801
     99 H29        40.7488   56.8371   89.9218 H           1 DVA       0.0337
    100 H30        39.5573   56.4472   88.6937 H           1 DVA       0.0337
    101 H31        41.7004   57.5673   87.1805 H           1 DVA       0.0504
    102 H32        41.7651   58.4794   88.6752 H           1 DVA       0.0504
    103 H33        38.4941   59.8483   88.1458 H           1 DVA       0.1814
    104 H34        39.5393   59.4129   89.3835 H           1 DVA       0.1814
    105 H35        43.3219   54.5378   87.0685 H           1 DVA       0.1885
    106 H36        42.5385   55.0704   84.5478 H           1 DVA       0.0817
    107 H37        41.0267   52.7604   85.5517 H           1 DVA       0.0420
    108 H38        42.0966   52.1807   84.3003 H           1 DVA       0.0420
    109 H39        38.8815   54.1447   84.6466 H           1 DVA       0.0729
    110 H40        39.8833   54.2461   80.6715 H           1 DVA       0.1199
    111 H41        38.0907   54.7356   82.3484 H           1 DVA       0.2361
    112 H42        44.4918   55.1557   83.7281 H           1 DVA       0.1885
    113 H43        46.3443   53.0940   83.6120 H           1 DVA       0.0821
    114 H44        46.6179   53.8719   86.0989 H           1 DVA       0.0453
    115 H45        47.2947   55.3503   85.4839 H           1 DVA       0.0453
    116 H46        49.3403   55.0307   83.8014 H           1 DVA       0.0530
    117 H47        47.9624   51.9483   86.3390 H           1 DVA       0.0530
    118 H48        51.4348   53.8667   83.5332 H           1 DVA       0.0525
    119 H49        50.0730   50.8141   86.0989 H           1 DVA       0.0525
    120 H50        52.1099   51.1952   83.7678 H           1 DVA       0.2458
    121 H51        46.0945   56.6404   83.7616 H           1 DVA       0.1884
    122 H52        48.2298   57.4103   82.3991 H           1 DVA       0.0819
    123 H53        45.5769   58.8584   82.0104 H           1 DVA       0.0478
    124 H54        47.1983   59.5504   82.1098 H           1 DVA       0.0478
    125 H55        48.9107   57.3626   80.3316 H           1 DVA       0.1876
    126 H56        49.0083   57.2593   78.1476 H           1 DVA       0.0749
    127 H57        46.8052   56.3501   76.8446 H           1 DVA       0.0599
    128 H58        47.1648   58.0508   77.1374 H           1 DVA       0.0599
    129 H59        45.6927   58.1934   78.5934 H           1 DVA       0.2096
@<TRIPOS>BOND
     1     1     2   1
     2     2     3   1
     3     2     6   1
     4     3     4   1
     5     3     5   1
     6     6     7   2
     7     6     8  am
     8     8     9   1
     9     8    12   1
    10     9    10   1
    11     9    13   1
    12    10    11   1
    13    11    12   1
    14    13    14   2
    15    13    15  am
    16    15    16   1
    17    16    17   1
    18    17    18   2
    19    17    19  am
    20    19    20   1
    21    20    21   1
    22    20    23   1
    23    21    22   2
    24    21    25  am
    25    23    24   1
    26    25    26   1
    27    26    27   1
    28    26    29   1
    29    27    28   2
    30    27    34  am
    31    29    30   1
    32    30    31   1
    33    31    32   2
    34    31    33  am
    35    34    35   1
    36    35    36   1
    37    35    38   1
    38    36    37   2
    39    36    44  am
    40    38    39   1
    41    39    40   1
    42    39    41   2
    43    40    42   2
    44    41    43   1
    45    42    43   1
    46    44    45   1
    47    45    46   1
    48    45    48   1
    49    46    47   2
    50    46    56  am
    51    48    49   1
    52    49    50  ar
    53    49    51  ar
    54    50    52  ar
    55    51    53  ar
    56    52    54  ar
    57    53    54  ar
    58    54    55   1
    59    56    57   1
    60    57    58   1
    61    57    60   1
    62    58    59   2
    63    58    64  am
    64    60    61   1
    65    61    62  ar
    66    61    63  ar
    67    64    65   1
    68    65    66   1
    69    65    69   1
    70    66    67  ar
    71    66    68  ar
    72    69    70   1
    73     1    71   1
    74     1    72   1
    75     1    73   1
    76     2    74   1
    77     3    75   1
    78     4    76   1
    79     4    77   1
    80     4    78   1
    81     5    79   1
    82     5    80   1
    83     5    81   1
    84     9    82   1
    85    10    83   1
    86    10    84   1
    87    11    85   1
    88    11    86   1
    89    12    87   1
    90    12    88   1
    91    15    89   1
    92    16    90   1
    93    16    91   1
    94    19    92   1
    95    20    93   1
    96    23    94   1
    97    23    95   1
    98    24    96   1
    99    25    97   1
   100    26    98   1
   101    29    99   1
   102    29   100   1
   103    30   101   1
   104    30   102   1
   105    33   103   1
   106    33   104   1
   107    34   105   1
   108    35   106   1
   109    38   107   1
   110    38   108   1
   111    41   109   1
   112    42   110   1
   113    43   111   1
   114    44   112   1
   115    45   113   1
   116    48   114   1
   117    48   115   1
   118    50   116   1
   119    51   117   1
   120    52   118   1
   121    53   119   1
   122    55   120   1
   123    56   121   1
   124    57   122   1
   125    60   123   1
   126    60   124   1
   127    64   125   1
   128    65   126   1
   129    69   127   1
   130    69   128   1
   131    70   129   1
@<TRIPOS>SUBSTRUCTURE
     1  DVA      2

