@<TRIPOS>MOLECULE
1zea_ligand_033
   129   131
SMALL
GAST_HUCK
****
This file was generated by PARSER (from files_GN.cpp)

@<TRIPOS>ATOM
      1 N          51.0702   54.8237   81.5976 N.4         1 DVA       0.2381
      2 CA         51.8185   53.5914   81.9125 C.3         1 DVA       0.0675
      3 CB         52.7774   53.8082   83.1434 C.3         1 DVA       0.0139
      4 CG1        52.0403   54.3444   84.4057 C.3         1 DVA      -0.0553
      5 CG2        53.5641   52.5178   83.5127 C.3         1 DVA      -0.0553
      6 C          52.5270   53.1755   80.6926 C.2         1 DVA       0.2295
      7 O          53.4037   53.9514   80.3141 O.2         1 DVA      -0.3905
      8 N          52.3237   52.0439   79.9910 N.am        1 DVA      -0.2471
      9 CA         51.2530   51.0841   80.1898 C.3         1 DVA       0.1339
     10 CB         51.5823   49.9124   79.2216 C.3         1 DVA      -0.0104
     11 CG         53.0664   50.0864   78.9035 C.3         1 DVA      -0.0281
     12 CD         53.2531   51.6054   78.9823 C.3         1 DVA       0.0371
     13 C          49.8844   51.5600   79.9808 C.2         1 DVA       0.2039
     14 O          49.6671   52.7507   79.7628 O.2         1 DVA      -0.3944
     15 N          48.8929   50.6686   80.0156 N.am        1 DVA      -0.2664
     16 CA         47.4920   50.9086   79.8288 C.3         1 DVA       0.1201
     17 C          46.8434   51.2011   81.0916 C.2         1 DVA       0.2008
     18 O          47.1431   52.2496   81.6475 O.2         1 DVA      -0.3947
     19 N          45.9671   50.3584   81.6296 N.am        1 DVA      -0.2618
     20 CA         45.3421   50.4732   82.9224 C.3         1 DVA       0.1539
     21 C          44.0091   51.0476   82.7931 C.2         1 DVA       0.2062
     22 O          43.1318   50.3975   82.2337 O.2         1 DVA      -0.3943
     23 CB         45.3295   49.0979   83.6539 C.3         1 DVA       0.0843
     24 OG         44.3332   48.1920   83.1813 O.3         1 DVA      -0.3903
     25 N          43.7400   52.2310   83.3318 N.am        1 DVA      -0.2635
     26 CA         42.4482   52.8750   83.3945 C.3         1 DVA       0.1330
     27 C          42.4344   53.7263   84.5858 C.2         1 DVA       0.2041
     28 O          43.3242   54.5558   84.7237 O.2         1 DVA      -0.3944
     29 CB         42.1190   53.6532   82.0694 C.3         1 DVA       0.0045
     30 CG         40.6500   53.5168   81.5675 C.3         1 DVA       0.0412
     31 CD         39.5860   53.8926   82.4846 C.2         1 DVA       0.1737
     32 OE1        38.4314   53.5931   82.2244 O.2         1 DVA      -0.3973
     33 NE2        39.7847   54.6050   83.5699 N.am        1 DVA      -0.3009
     34 N          41.5157   53.5559   85.5398 N.am        1 DVA      -0.2625
     35 CA         41.4595   54.1827   86.8384 C.3         1 DVA       0.1369
     36 C          42.5421   53.6447   87.6670 C.2         1 DVA       0.2055
     37 O          43.4258   54.3767   88.0955 O.2         1 DVA      -0.3942
     38 CB         41.3553   55.7461   86.7260 C.3         1 DVA       0.0145
     39 CG         40.7013   56.4358   87.8626 C.2         1 DVA      -0.0027
     40 ND1        39.8876   57.5031   87.7373 N.2         1 DVA      -0.3252
     41 CD2        40.7875   56.1230   89.2222 C.2         1 DVA       0.0291
     42 CE1        39.4830   57.8385   88.9743 C.2         1 DVA       0.0907
     43 NE2        40.0196   57.0023   89.8783 N.pl3       1 DVA      -0.2752
     44 N          42.5714   52.3365   87.9004 N.am        1 DVA      -0.2620
     45 CA         43.5421   51.5714   88.6299 C.3         1 DVA       0.1390
     46 C          44.7934   51.5049   87.8732 C.2         1 DVA       0.2058
     47 O          44.9248   50.5688   87.0898 O.2         1 DVA      -0.3942
     48 CB         43.6805   51.9428   90.1446 C.3         1 DVA       0.0163
     49 CG         42.3985   52.2898   90.8316 C.ar        1 DVA      -0.0493
     50 CD1        42.2177   53.5650   91.4163 C.ar        1 DVA      -0.0685
     51 CD2        41.3252   51.3692   90.8861 C.ar        1 DVA      -0.0685
     52 CE1        40.9920   53.9252   92.0008 C.ar        1 DVA      -0.0398
     53 CE2        40.0974   51.7272   91.4703 C.ar        1 DVA      -0.0398
     54 CZ         39.9167   53.0174   92.0054 C.ar        1 DVA       0.0805
     55 OH         38.7072   53.3795   92.4974 O.3         1 DVA      -0.3376
     56 N          45.7389   52.4354   87.9771 N.am        1 DVA      -0.2620
     57 CA         46.9757   52.5394   87.2416 C.3         1 DVA       0.1423
     58 C          47.7723   51.3171   87.3594 C.2         1 DVA       0.2051
     59 O          47.5972   50.3942   86.5712 O.2         1 DVA      -0.3943
     60 CB         46.7394   53.0190   85.7727 C.3         1 DVA       0.0406
     61 CG         46.2858   54.4189   85.6337 C.2         1 DVA       0.0393
     62 OD1        46.1794   54.9561   84.3975 O.co2       1 DVA      -0.5688
     63 OD2        46.0201   55.2155   86.6968 O.co2       1 DVA      -0.5688
     64 N          48.6090   51.1864   88.3842 N.am        1 DVA      -0.2671
     65 CA         49.3493   50.0227   88.7842 C.3         1 DVA       0.1173
     66 C          48.5087   49.0414   89.5134 C.2         1 DVA       0.0623
     67 O          47.1940   49.2530   89.7556 O.co2       1 DVA      -0.5665
     68 OXT        49.0880   47.9766   90.1114 O.co2       1 DVA      -0.5665
     69 CB         50.1375   49.3617   87.6215 C.3         1 DVA       0.0789
     70 OG         50.7548   50.3305   86.7794 O.3         1 DVA      -0.3910
     71 H1         50.4643   55.0679   82.3850 H           1 DVA       0.2015
     72 H2         50.4923   54.6733   80.7669 H           1 DVA       0.2015
     73 H3         51.7242   55.5936   81.4220 H           1 DVA       0.2015
     74 H4         51.0741   52.8480   82.2040 H           1 DVA       0.1101
     75 H5         53.5176   54.5700   82.8732 H           1 DVA       0.0376
     76 H6         52.7415   54.4714   85.2332 H           1 DVA       0.0236
     77 H7         51.2539   53.6547   84.7190 H           1 DVA       0.0236
     78 H8         51.5929   55.3195   84.2071 H           1 DVA       0.0236
     79 H9         54.1639   52.1786   82.6678 H           1 DVA       0.0236
     80 H10        52.8803   51.7176   83.8008 H           1 DVA       0.0236
     81 H11        54.2456   52.7100   84.3435 H           1 DVA       0.0236
     82 H12        51.3371   50.7018   81.2115 H           1 DVA       0.0802
     83 H13        51.0136   49.9747   78.2872 H           1 DVA       0.0313
     84 H14        51.3907   48.9387   79.6841 H           1 DVA       0.0313
     85 H15        53.3289   49.6941   77.9182 H           1 DVA       0.0287
     86 H16        53.6754   49.5894   79.6657 H           1 DVA       0.0287
     87 H17        54.2958   51.8206   79.2333 H           1 DVA       0.0524
     88 H18        53.0077   52.0811   78.0277 H           1 DVA       0.0524
     89 H19        49.1442   49.7346   80.1425 H           1 DVA       0.1881
     90 H20        47.0713   50.0072   79.3791 H           1 DVA       0.0763
     91 H21        47.3045   51.7252   79.1265 H           1 DVA       0.0763
     92 H22        45.7335   49.5771   81.1056 H           1 DVA       0.1884
     93 H23        45.9617   51.1261   83.5514 H           1 DVA       0.0823
     94 H24        45.1461   49.2568   84.7183 H           1 DVA       0.0606
     95 H25        46.3085   48.6200   83.5527 H           1 DVA       0.0606
     96 H26        44.5611   48.0295   82.2449 H           1 DVA       0.2097
     97 H27        44.4789   52.6896   83.7651 H           1 DVA       0.1883
     98 H28        41.7013   52.0845   83.5347 H           1 DVA       0.0801
     99 H29        42.7542   53.2696   81.2659 H           1 DVA       0.0337
    100 H30        42.3661   54.7163   82.1680 H           1 DVA       0.0337
    101 H31        40.4976   52.4772   81.2620 H           1 DVA       0.0504
    102 H32        40.5382   54.1284   80.6671 H           1 DVA       0.0504
    103 H33        39.0265   54.8284   84.1312 H           1 DVA       0.1814
    104 H34        40.6731   54.9114   83.8054 H           1 DVA       0.1814
    105 H35        40.8092   52.9161   85.3484 H           1 DVA       0.1885
    106 H36        40.5192   53.8404   87.2840 H           1 DVA       0.0817
    107 H37        40.7698   55.9879   85.8325 H           1 DVA       0.0420
    108 H38        42.3498   56.1788   86.5855 H           1 DVA       0.0420
    109 H39        41.3234   55.3619   89.6568 H           1 DVA       0.0729
    110 H40        38.8529   58.6117   89.1912 H           1 DVA       0.1199
    111 H41        39.8721   57.0283   90.8423 H           1 DVA       0.2361
    112 H42        41.8569   51.8147   87.4977 H           1 DVA       0.1885
    113 H43        43.1256   50.5582   88.6303 H           1 DVA       0.0821
    114 H44        44.3831   52.7715   90.2467 H           1 DVA       0.0453
    115 H45        44.1246   51.0938   90.6687 H           1 DVA       0.0453
    116 H46        42.9828   54.2437   91.4298 H           1 DVA       0.0530
    117 H47        41.4232   50.4336   90.4853 H           1 DVA       0.0530
    118 H48        40.8729   54.8564   92.4029 H           1 DVA       0.0525
    119 H49        39.3294   51.0541   91.4984 H           1 DVA       0.0525
    120 H50        38.5452   54.2936   92.1732 H           1 DVA       0.2458
    121 H51        45.5720   53.1462   88.6149 H           1 DVA       0.1884
    122 H52        47.5490   53.3348   87.7307 H           1 DVA       0.0819
    123 H53        45.9907   52.3749   85.3026 H           1 DVA       0.0478
    124 H54        47.6742   52.9245   85.2124 H           1 DVA       0.0478
    125 H55        48.6963   51.9625   88.9645 H           1 DVA       0.1876
    126 H56        50.0847   50.3868   89.5048 H           1 DVA       0.0749
    127 H57        49.4809   48.7462   87.0054 H           1 DVA       0.0599
    128 H58        50.9203   48.7120   88.0198 H           1 DVA       0.0599
    129 H59        51.3970   50.8025   87.3503 H           1 DVA       0.2096
@<TRIPOS>BOND
     1     1     2   1
     2     2     3   1
     3     2     6   1
     4     3     4   1
     5     3     5   1
     6     6     7   2
     7     6     8  am
     8     8     9   1
     9     8    12   1
    10     9    10   1
    11     9    13   1
    12    10    11   1
    13    11    12   1
    14    13    14   2
    15    13    15  am
    16    15    16   1
    17    16    17   1
    18    17    18   2
    19    17    19  am
    20    19    20   1
    21    20    21   1
    22    20    23   1
    23    21    22   2
    24    21    25  am
    25    23    24   1
    26    25    26   1
    27    26    27   1
    28    26    29   1
    29    27    28   2
    30    27    34  am
    31    29    30   1
    32    30    31   1
    33    31    32   2
    34    31    33  am
    35    34    35   1
    36    35    36   1
    37    35    38   1
    38    36    37   2
    39    36    44  am
    40    38    39   1
    41    39    40   1
    42    39    41   2
    43    40    42   2
    44    41    43   1
    45    42    43   1
    46    44    45   1
    47    45    46   1
    48    45    48   1
    49    46    47   2
    50    46    56  am
    51    48    49   1
    52    49    50  ar
    53    49    51  ar
    54    50    52  ar
    55    51    53  ar
    56    52    54  ar
    57    53    54  ar
    58    54    55   1
    59    56    57   1
    60    57    58   1
    61    57    60   1
    62    58    59   2
    63    58    64  am
    64    60    61   1
    65    61    62  ar
    66    61    63  ar
    67    64    65   1
    68    65    66   1
    69    65    69   1
    70    66    67  ar
    71    66    68  ar
    72    69    70   1
    73     1    71   1
    74     1    72   1
    75     1    73   1
    76     2    74   1
    77     3    75   1
    78     4    76   1
    79     4    77   1
    80     4    78   1
    81     5    79   1
    82     5    80   1
    83     5    81   1
    84     9    82   1
    85    10    83   1
    86    10    84   1
    87    11    85   1
    88    11    86   1
    89    12    87   1
    90    12    88   1
    91    15    89   1
    92    16    90   1
    93    16    91   1
    94    19    92   1
    95    20    93   1
    96    23    94   1
    97    23    95   1
    98    24    96   1
    99    25    97   1
   100    26    98   1
   101    29    99   1
   102    29   100   1
   103    30   101   1
   104    30   102   1
   105    33   103   1
   106    33   104   1
   107    34   105   1
   108    35   106   1
   109    38   107   1
   110    38   108   1
   111    41   109   1
   112    42   110   1
   113    43   111   1
   114    44   112   1
   115    45   113   1
   116    48   114   1
   117    48   115   1
   118    50   116   1
   119    51   117   1
   120    52   118   1
   121    53   119   1
   122    55   120   1
   123    56   121   1
   124    57   122   1
   125    60   123   1
   126    60   124   1
   127    64   125   1
   128    65   126   1
   129    69   127   1
   130    69   128   1
   131    70   129   1
@<TRIPOS>SUBSTRUCTURE
     1  DVA      2

