@<TRIPOS>MOLECULE
1zea_ligand_093
   129   131
SMALL
GAST_HUCK
****
This file was generated by PARSER (from files_GN.cpp)

@<TRIPOS>ATOM
      1 N          46.8732   60.2886   94.5451 N.4         1 DVA       0.2381
      2 CA         45.8131   61.3054   94.3706 C.3         1 DVA       0.0675
      3 CB         46.3144   62.7381   94.7633 C.3         1 DVA       0.0139
      4 CG1        47.5310   63.2012   93.9058 C.3         1 DVA      -0.0553
      5 CG2        45.1943   63.8229   94.6549 C.3         1 DVA      -0.0553
      6 C          44.6356   60.8738   95.1249 C.2         1 DVA       0.2295
      7 O          44.7899   60.8077   96.3397 O.2         1 DVA      -0.3905
      8 N          43.4230   60.5990   94.6085 N.am        1 DVA      -0.2471
      9 CA         43.0588   60.6383   93.2028 C.3         1 DVA       0.1339
     10 CB         41.5106   60.7061   93.2248 C.3         1 DVA      -0.0104
     11 CG         41.1259   59.9451   94.4964 C.3         1 DVA      -0.0281
     12 CD         42.3040   60.2307   95.4437 C.3         1 DVA       0.0371
     13 C          43.5622   59.5046   92.4332 C.2         1 DVA       0.2039
     14 O          44.1294   58.5768   92.9946 O.2         1 DVA      -0.3944
     15 N          43.3634   59.4873   91.1171 N.am        1 DVA      -0.2664
     16 CA         43.7296   58.4481   90.2066 C.3         1 DVA       0.1201
     17 C          42.5331   57.8008   89.7198 C.2         1 DVA       0.2008
     18 O          41.9261   57.0473   90.4780 O.2         1 DVA      -0.3947
     19 N          42.0777   58.0736   88.5022 N.am        1 DVA      -0.2618
     20 CA         40.8651   57.6134   87.8929 C.3         1 DVA       0.1539
     21 C          40.9671   56.1886   87.5958 C.2         1 DVA       0.2062
     22 O          40.1657   55.3972   88.0874 O.2         1 DVA      -0.3943
     23 CB         39.5882   58.0780   88.6843 C.3         1 DVA       0.0843
     24 OG         39.8272   59.2673   89.4626 O.3         1 DVA      -0.3903
     25 N          41.9261   55.7626   86.7788 N.am        1 DVA      -0.2635
     26 CA         42.2874   54.4064   86.4564 C.3         1 DVA       0.1330
     27 C          42.8471   53.7115   87.6216 C.2         1 DVA       0.2041
     28 O          43.6776   54.3180   88.2884 O.2         1 DVA      -0.3944
     29 CB         41.1411   53.6510   85.7007 C.3         1 DVA       0.0045
     30 CG         40.4900   54.3917   84.4942 C.3         1 DVA       0.0412
     31 CD         41.1886   54.2405   83.2285 C.2         1 DVA       0.1737
     32 OE1        40.5993   53.7721   82.2511 O.2         1 DVA      -0.3973
     33 NE2        42.4073   54.6949   83.0423 N.am        1 DVA      -0.3009
     34 N          42.5385   52.4563   87.9506 N.am        1 DVA      -0.2625
     35 CA         42.9459   51.7270   89.1329 C.3         1 DVA       0.1369
     36 C          44.4002   51.5712   89.1962 C.2         1 DVA       0.2055
     37 O          45.0298   52.0060   90.1663 O.2         1 DVA      -0.3942
     38 CB         42.2897   52.3146   90.4338 C.3         1 DVA       0.0145
     39 CG         40.8074   52.2950   90.4246 C.2         1 DVA      -0.0027
     40 ND1        40.0433   52.9003   89.5045 N.2         1 DVA      -0.3252
     41 CD2        39.9645   51.7129   91.3791 C.2         1 DVA       0.0291
     42 CE1        38.7636   52.6892   89.8627 C.2         1 DVA       0.0907
     43 NE2        38.7129   51.9714   90.9963 N.pl3       1 DVA      -0.2752
     44 N          45.0332   50.8913   88.2356 N.am        1 DVA      -0.2620
     45 CA         46.4350   50.5839   88.0432 C.3         1 DVA       0.1390
     46 C          47.2513   50.6217   89.2596 C.2         1 DVA       0.2058
     47 O          46.9490   49.8767   90.1928 O.2         1 DVA      -0.3942
     48 CB         46.6060   49.1930   87.3615 C.3         1 DVA       0.0163
     49 CG         45.8874   49.0596   86.0673 C.ar        1 DVA      -0.0493
     50 CD1        46.3492   49.7348   84.9123 C.ar        1 DVA      -0.0685
     51 CD2        44.7382   48.2441   85.9549 C.ar        1 DVA      -0.0685
     52 CE1        45.6753   49.5998   83.6811 C.ar        1 DVA      -0.0398
     53 CE2        44.0575   48.1131   84.7345 C.ar        1 DVA      -0.0398
     54 CZ         44.5203   48.7941   83.5928 C.ar        1 DVA       0.0805
     55 OH         43.8301   48.6711   82.4367 O.3         1 DVA      -0.3376
     56 N          48.2808   51.4596   89.3815 N.am        1 DVA      -0.2620
     57 CA         49.0495   51.7093   90.5740 C.3         1 DVA       0.1423
     58 C          50.3251   50.9943   90.5109 C.2         1 DVA       0.2051
     59 O          51.3688   51.5506   90.8114 O.2         1 DVA      -0.3943
     60 CB         49.1407   53.2607   90.7573 C.3         1 DVA       0.0406
     61 CG         49.6630   53.6828   92.0646 C.2         1 DVA       0.0393
     62 OD1        48.9781   53.4126   93.1998 O.co2       1 DVA      -0.5688
     63 OD2        50.7909   54.4282   92.1457 O.co2       1 DVA      -0.5688
     64 N          50.3122   49.6851   90.2334 N.am        1 DVA      -0.2671
     65 CA         51.4112   48.7662   90.2826 C.3         1 DVA       0.1173
     66 C          50.8802   47.4377   89.8969 C.2         1 DVA       0.0623
     67 O          50.3837   47.2461   88.6549 O.co2       1 DVA      -0.5665
     68 OXT        50.8350   46.4220   90.7880 O.co2       1 DVA      -0.5665
     69 CB         52.6293   49.1370   89.3851 C.3         1 DVA       0.0789
     70 OG         52.2327   49.4416   88.0500 O.3         1 DVA      -0.3910
     71 H1         47.6651   60.5078   93.9391 H           1 DVA       0.2015
     72 H2         46.5073   59.3706   94.2849 H           1 DVA       0.2015
     73 H3         47.1860   60.2661   95.5176 H           1 DVA       0.2015
     74 H4         45.6126   61.3189   93.2992 H           1 DVA       0.1101
     75 H5         46.6470   62.7215   95.8068 H           1 DVA       0.0376
     76 H6         47.8549   64.2021   94.2065 H           1 DVA       0.0236
     77 H7         47.2683   63.2272   92.8468 H           1 DVA       0.0236
     78 H8         48.3786   62.5296   94.0418 H           1 DVA       0.0236
     79 H9         44.3756   63.6061   95.3464 H           1 DVA       0.0236
     80 H10        44.7960   63.8600   93.6405 H           1 DVA       0.0236
     81 H11        45.5847   64.8129   94.9087 H           1 DVA       0.0236
     82 H12        43.4159   61.5657   92.7504 H           1 DVA       0.0802
     83 H13        41.0313   60.2771   92.3368 H           1 DVA       0.0313
     84 H14        41.1863   61.7520   93.3138 H           1 DVA       0.0313
     85 H15        41.0729   58.8745   94.2818 H           1 DVA       0.0287
     86 H16        40.1722   60.2834   94.9082 H           1 DVA       0.0287
     87 H17        42.0519   61.0602   96.1183 H           1 DVA       0.0524
     88 H18        42.5304   59.3407   96.0392 H           1 DVA       0.0524
     89 H19        42.8740   60.2374   90.7426 H           1 DVA       0.1881
     90 H20        44.3942   57.6958   90.6513 H           1 DVA       0.0763
     91 H21        44.2915   58.9200   89.3881 H           1 DVA       0.0763
     92 H22        42.6213   58.6760   87.9738 H           1 DVA       0.1884
     93 H23        40.8181   58.1356   86.9290 H           1 DVA       0.0823
     94 H24        39.2461   57.2964   89.3780 H           1 DVA       0.0606
     95 H25        38.7650   58.2833   87.9777 H           1 DVA       0.0606
     96 H26        38.9673   59.4414   89.9275 H           1 DVA       0.2097
     97 H27        42.4893   56.4559   86.4024 H           1 DVA       0.1883
     98 H28        43.1090   54.4859   85.7511 H           1 DVA       0.0801
     99 H29        40.3479   53.4407   86.4263 H           1 DVA       0.0337
    100 H30        41.5159   52.6830   85.3494 H           1 DVA       0.0337
    101 H31        40.4020   55.4605   84.6983 H           1 DVA       0.0504
    102 H32        39.4633   54.0161   84.3848 H           1 DVA       0.0504
    103 H33        42.8243   54.6230   82.1663 H           1 DVA       0.1814
    104 H34        42.8962   55.1092   83.7776 H           1 DVA       0.1814
    105 H35        41.9525   51.9619   87.3586 H           1 DVA       0.1885
    106 H36        42.5386   50.7078   89.0259 H           1 DVA       0.0817
    107 H37        42.6197   53.3476   90.5804 H           1 DVA       0.0420
    108 H38        42.6382   51.7298   91.2995 H           1 DVA       0.0420
    109 H39        40.2538   51.1801   92.2080 H           1 DVA       0.0729
    110 H40        37.9576   53.0239   89.3402 H           1 DVA       0.1199
    111 H41        37.9081   51.6791   91.4578 H           1 DVA       0.2361
    112 H42        44.4606   50.5828   87.5180 H           1 DVA       0.1885
    113 H43        46.8130   51.3487   87.3541 H           1 DVA       0.0821
    114 H44        46.2534   48.4289   88.0583 H           1 DVA       0.0453
    115 H45        47.6652   48.9851   87.1843 H           1 DVA       0.0453
    116 H46        47.1852   50.3232   84.9563 H           1 DVA       0.0530
    117 H47        44.3797   47.7340   86.7584 H           1 DVA       0.0530
    118 H48        46.0222   50.0929   82.8515 H           1 DVA       0.0525
    119 H49        43.2262   47.5246   84.6704 H           1 DVA       0.0525
    120 H50        44.4704   48.8198   81.7087 H           1 DVA       0.2458
    121 H51        48.5225   52.0041   88.6046 H           1 DVA       0.1884
    122 H52        48.5214   51.3153   91.4544 H           1 DVA       0.0819
    123 H53        48.1423   53.6921   90.6491 H           1 DVA       0.0478
    124 H54        49.7679   53.6697   89.9552 H           1 DVA       0.0478
    125 H55        49.4458   49.3055   90.0189 H           1 DVA       0.1876
    126 H56        51.7590   48.7180   91.3153 H           1 DVA       0.0749
    127 H57        53.3465   48.3124   89.3614 H           1 DVA       0.0599
    128 H58        53.1491   50.0084   89.7917 H           1 DVA       0.0599
    129 H59        53.0636   49.6317   87.5680 H           1 DVA       0.2096
@<TRIPOS>BOND
     1     1     2   1
     2     2     3   1
     3     2     6   1
     4     3     4   1
     5     3     5   1
     6     6     7   2
     7     6     8  am
     8     8     9   1
     9     8    12   1
    10     9    10   1
    11     9    13   1
    12    10    11   1
    13    11    12   1
    14    13    14   2
    15    13    15  am
    16    15    16   1
    17    16    17   1
    18    17    18   2
    19    17    19  am
    20    19    20   1
    21    20    21   1
    22    20    23   1
    23    21    22   2
    24    21    25  am
    25    23    24   1
    26    25    26   1
    27    26    27   1
    28    26    29   1
    29    27    28   2
    30    27    34  am
    31    29    30   1
    32    30    31   1
    33    31    32   2
    34    31    33  am
    35    34    35   1
    36    35    36   1
    37    35    38   1
    38    36    37   2
    39    36    44  am
    40    38    39   1
    41    39    40   1
    42    39    41   2
    43    40    42   2
    44    41    43   1
    45    42    43   1
    46    44    45   1
    47    45    46   1
    48    45    48   1
    49    46    47   2
    50    46    56  am
    51    48    49   1
    52    49    50  ar
    53    49    51  ar
    54    50    52  ar
    55    51    53  ar
    56    52    54  ar
    57    53    54  ar
    58    54    55   1
    59    56    57   1
    60    57    58   1
    61    57    60   1
    62    58    59   2
    63    58    64  am
    64    60    61   1
    65    61    62  ar
    66    61    63  ar
    67    64    65   1
    68    65    66   1
    69    65    69   1
    70    66    67  ar
    71    66    68  ar
    72    69    70   1
    73     1    71   1
    74     1    72   1
    75     1    73   1
    76     2    74   1
    77     3    75   1
    78     4    76   1
    79     4    77   1
    80     4    78   1
    81     5    79   1
    82     5    80   1
    83     5    81   1
    84     9    82   1
    85    10    83   1
    86    10    84   1
    87    11    85   1
    88    11    86   1
    89    12    87   1
    90    12    88   1
    91    15    89   1
    92    16    90   1
    93    16    91   1
    94    19    92   1
    95    20    93   1
    96    23    94   1
    97    23    95   1
    98    24    96   1
    99    25    97   1
   100    26    98   1
   101    29    99   1
   102    29   100   1
   103    30   101   1
   104    30   102   1
   105    33   103   1
   106    33   104   1
   107    34   105   1
   108    35   106   1
   109    38   107   1
   110    38   108   1
   111    41   109   1
   112    42   110   1
   113    43   111   1
   114    44   112   1
   115    45   113   1
   116    48   114   1
   117    48   115   1
   118    50   116   1
   119    51   117   1
   120    52   118   1
   121    53   119   1
   122    55   120   1
   123    56   121   1
   124    57   122   1
   125    60   123   1
   126    60   124   1
   127    64   125   1
   128    65   126   1
   129    69   127   1
   130    69   128   1
   131    70   129   1
@<TRIPOS>SUBSTRUCTURE
     1  DVA      2

