@<TRIPOS>MOLECULE
1zea_ligand_044
   129   131
SMALL
GAST_HUCK
****
This file was generated by PARSER (from files_GN.cpp)

@<TRIPOS>ATOM
      1 N          45.3674   62.1998   86.3085 N.4         1 DVA       0.2381
      2 CA         46.7216   62.1509   85.7349 C.3         1 DVA       0.0675
      3 CB         47.0033   63.3425   84.7387 C.3         1 DVA       0.0139
      4 CG1        45.9663   63.4879   83.5864 C.3         1 DVA      -0.0553
      5 CG2        47.1419   64.6997   85.4893 C.3         1 DVA      -0.0553
      6 C          46.9509   60.8201   85.1550 C.2         1 DVA       0.2295
      7 O          46.3080   60.5677   84.1401 O.2         1 DVA      -0.3905
      8 N          47.7742   59.8732   85.6432 N.am        1 DVA      -0.2471
      9 CA         48.4658   59.9073   86.9162 C.3         1 DVA       0.1339
     10 CB         49.3108   58.6062   86.9620 C.3         1 DVA      -0.0104
     11 CG         49.4143   58.1720   85.4970 C.3         1 DVA      -0.0281
     12 CD         48.1101   58.6973   84.8849 C.3         1 DVA       0.0371
     13 C          47.6004   59.9914   88.0965 C.2         1 DVA       0.2039
     14 O          47.7864   60.9144   88.8846 O.2         1 DVA      -0.3944
     15 N          46.7468   59.0151   88.3724 N.am        1 DVA      -0.2664
     16 CA         46.0575   58.8136   89.6082 C.3         1 DVA       0.1201
     17 C          44.8096   59.5483   89.7280 C.2         1 DVA       0.2008
     18 O          44.4269   60.2053   88.7637 O.2         1 DVA      -0.3947
     19 N          44.0807   59.4624   90.8360 N.am        1 DVA      -0.2618
     20 CA         42.7879   60.0488   91.0771 C.3         1 DVA       0.1539
     21 C          41.6987   59.0993   90.8549 C.2         1 DVA       0.2062
     22 O          40.8544   59.3647   90.0094 O.2         1 DVA      -0.3943
     23 CB         42.7495   60.6202   92.5232 C.3         1 DVA       0.0843
     24 OG         41.4593   61.1177   92.8778 O.3         1 DVA      -0.3903
     25 N          41.6413   57.9744   91.5576 N.am        1 DVA      -0.2635
     26 CA         40.6352   56.9423   91.4889 C.3         1 DVA       0.1330
     27 C          41.0649   55.8688   90.5953 C.2         1 DVA       0.2041
     28 O          42.2652   55.6893   90.3938 O.2         1 DVA      -0.3944
     29 CB         40.3305   56.3782   92.9126 C.3         1 DVA       0.0045
     30 CG         39.7049   57.4151   93.8911 C.3         1 DVA       0.0412
     31 CD         39.1154   56.7888   95.0617 C.2         1 DVA       0.1737
     32 OE1        38.2600   55.9246   94.9293 O.2         1 DVA      -0.3973
     33 NE2        39.4859   57.1118   96.2812 N.am        1 DVA      -0.3009
     34 N          40.1529   55.0781   90.0392 N.am        1 DVA      -0.2625
     35 CA         40.3493   53.9610   89.1611 C.3         1 DVA       0.1369
     36 C          41.1091   54.3590   87.9721 C.2         1 DVA       0.2055
     37 O          40.4862   54.8682   87.0562 O.2         1 DVA      -0.3942
     38 CB         40.8855   52.6963   89.9057 C.3         1 DVA       0.0145
     39 CG         39.9961   52.1059   90.9329 C.2         1 DVA      -0.0027
     40 ND1        40.4130   51.1765   91.8129 N.2         1 DVA      -0.3252
     41 CD2        38.6423   52.3285   91.1816 C.2         1 DVA       0.0291
     42 CE1        39.3624   50.8307   92.5749 C.2         1 DVA       0.0907
     43 NE2        38.2826   51.5281   92.1896 N.pl3       1 DVA      -0.2752
     44 N          42.4431   54.2492   87.9458 N.am        1 DVA      -0.2620
     45 CA         43.4243   54.5021   86.9096 C.3         1 DVA       0.1390
     46 C          44.4482   53.4492   86.8969 C.2         1 DVA       0.2058
     47 O          45.4939   53.6842   86.2923 O.2         1 DVA      -0.3942
     48 CB         42.8322   54.8081   85.4852 C.3         1 DVA       0.0163
     49 CG         43.7470   54.9026   84.3051 C.ar        1 DVA      -0.0493
     50 CD1        43.3593   54.3785   83.0497 C.ar        1 DVA      -0.0685
     51 CD2        44.9798   55.5923   84.4022 C.ar        1 DVA      -0.0685
     52 CE1        44.1883   54.5169   81.9226 C.ar        1 DVA      -0.0398
     53 CE2        45.8198   55.7202   83.2813 C.ar        1 DVA      -0.0398
     54 CZ         45.4264   55.1826   82.0360 C.ar        1 DVA       0.0805
     55 OH         46.2261   55.3085   80.9416 O.3         1 DVA      -0.3376
     56 N          44.2997   52.2885   87.5345 N.am        1 DVA      -0.2620
     57 CA         45.2154   51.1706   87.5630 C.3         1 DVA       0.1423
     58 C          45.2975   50.5644   86.2313 C.2         1 DVA       0.2051
     59 O          46.3626   50.4892   85.6349 O.2         1 DVA      -0.3943
     60 CB         46.5957   51.5173   88.2172 C.3         1 DVA       0.0406
     61 CG         46.5105   51.6878   89.6760 C.2         1 DVA       0.0393
     62 OD1        46.8801   52.8520   90.2603 O.co2       1 DVA      -0.5688
     63 OD2        46.2564   50.6178   90.4671 O.co2       1 DVA      -0.5688
     64 N          44.1621   50.1473   85.6677 N.am        1 DVA      -0.2671
     65 CA         43.9519   49.5985   84.3578 C.3         1 DVA       0.1173
     66 C          44.1014   50.6004   83.2879 C.2         1 DVA       0.0623
     67 O          45.1517   51.4553   83.2532 O.co2       1 DVA      -0.5665
     68 OXT        43.4256   50.4289   82.1289 O.co2       1 DVA      -0.5665
     69 CB         44.7882   48.3217   84.1013 C.3         1 DVA       0.0789
     70 OG         44.2294   47.5632   83.0264 O.3         1 DVA      -0.3910
     71 H1         45.2138   63.1008   86.7641 H           1 DVA       0.2015
     72 H2         45.2675   61.4511   86.9982 H           1 DVA       0.2015
     73 H3         44.6726   62.0709   85.5675 H           1 DVA       0.2015
     74 H4         47.3948   62.2910   86.5814 H           1 DVA       0.1101
     75 H5         47.9787   63.1591   84.2681 H           1 DVA       0.0376
     76 H6         46.2841   64.2638   82.8882 H           1 DVA       0.0236
     77 H7         44.9849   63.7568   83.9797 H           1 DVA       0.0236
     78 H8         45.8706   62.5652   83.0187 H           1 DVA       0.0236
     79 H9         47.9665   64.6584   86.2037 H           1 DVA       0.0236
     80 H10        46.2244   64.9376   86.0292 H           1 DVA       0.0236
     81 H11        47.3514   65.5109   84.7882 H           1 DVA       0.0236
     82 H12        49.1629   60.7551   86.8916 H           1 DVA       0.0802
     83 H13        48.8207   57.8083   87.5288 H           1 DVA       0.0313
     84 H14        50.3027   58.7825   87.3941 H           1 DVA       0.0313
     85 H15        49.5106   57.0860   85.3902 H           1 DVA       0.0287
     86 H16        50.2753   58.6573   85.0283 H           1 DVA       0.0287
     87 H17        48.2811   58.9156   83.8254 H           1 DVA       0.0524
     88 H18        47.3106   57.9571   84.9755 H           1 DVA       0.0524
     89 H19        46.6507   58.3168   87.7074 H           1 DVA       0.1881
     90 H20        46.7382   59.0601   90.4297 H           1 DVA       0.0763
     91 H21        45.8361   57.7459   89.6944 H           1 DVA       0.0763
     92 H22        44.4620   58.9553   91.5719 H           1 DVA       0.1884
     93 H23        42.6771   60.9103   90.4063 H           1 DVA       0.0823
     94 H24        43.4662   61.4437   92.6121 H           1 DVA       0.0606
     95 H25        43.0293   59.8505   93.2493 H           1 DVA       0.0606
     96 H26        41.6312   61.9529   93.3492 H           1 DVA       0.2097
     97 H27        42.3672   57.8155   92.1788 H           1 DVA       0.1883
     98 H28        39.6956   57.3555   91.0963 H           1 DVA       0.0801
     99 H29        41.2667   56.0080   93.3487 H           1 DVA       0.0337
    100 H30        39.6465   55.5250   92.8172 H           1 DVA       0.0337
    101 H31        38.9317   57.9927   93.3718 H           1 DVA       0.0504
    102 H32        40.4864   58.1162   94.2018 H           1 DVA       0.0504
    103 H33        39.0700   56.6746   97.0428 H           1 DVA       0.1814
    104 H34        40.1729   57.7840   96.4239 H           1 DVA       0.1814
    105 H35        39.2276   55.2685   90.2619 H           1 DVA       0.1885
    106 H36        39.3557   53.6826   88.8018 H           1 DVA       0.0817
    107 H37        41.8344   52.9426   90.3935 H           1 DVA       0.0420
    108 H38        41.0948   51.9074   89.1745 H           1 DVA       0.0420
    109 H39        38.0100   52.9530   90.6856 H           1 DVA       0.0729
    110 H40        39.3794   50.1371   93.3253 H           1 DVA       0.1199
    111 H41        37.3896   51.4499   92.5738 H           1 DVA       0.2361
    112 H42        42.8375   53.9453   88.7724 H           1 DVA       0.1885
    113 H43        43.9314   55.4149   87.2438 H           1 DVA       0.0821
    114 H44        42.3088   55.7701   85.5353 H           1 DVA       0.0453
    115 H45        42.0763   54.0403   85.2877 H           1 DVA       0.0453
    116 H46        42.4671   53.8959   82.9429 H           1 DVA       0.0530
    117 H47        45.2797   56.0095   85.2785 H           1 DVA       0.0530
    118 H48        43.8857   54.1482   81.0159 H           1 DVA       0.0525
    119 H49        46.7158   56.2035   83.3640 H           1 DVA       0.0525
    120 H50        46.1845   56.2629   80.6942 H           1 DVA       0.2458
    121 H51        43.4628   52.1509   88.0093 H           1 DVA       0.1884
    122 H52        44.7517   50.4117   88.2030 H           1 DVA       0.0819
    123 H53        47.0063   52.4218   87.7651 H           1 DVA       0.0478
    124 H54        47.2977   50.7034   88.0169 H           1 DVA       0.0478
    125 H55        43.3667   50.2284   86.2190 H           1 DVA       0.1876
    126 H56        42.9098   49.2842   84.3617 H           1 DVA       0.0749
    127 H57        44.7692   47.6836   84.9860 H           1 DVA       0.0599
    128 H58        45.8302   48.5617   83.8679 H           1 DVA       0.0599
    129 H59        44.6339   47.9112   82.1977 H           1 DVA       0.2096
@<TRIPOS>BOND
     1     1     2   1
     2     2     3   1
     3     2     6   1
     4     3     4   1
     5     3     5   1
     6     6     7   2
     7     6     8  am
     8     8     9   1
     9     8    12   1
    10     9    10   1
    11     9    13   1
    12    10    11   1
    13    11    12   1
    14    13    14   2
    15    13    15  am
    16    15    16   1
    17    16    17   1
    18    17    18   2
    19    17    19  am
    20    19    20   1
    21    20    21   1
    22    20    23   1
    23    21    22   2
    24    21    25  am
    25    23    24   1
    26    25    26   1
    27    26    27   1
    28    26    29   1
    29    27    28   2
    30    27    34  am
    31    29    30   1
    32    30    31   1
    33    31    32   2
    34    31    33  am
    35    34    35   1
    36    35    36   1
    37    35    38   1
    38    36    37   2
    39    36    44  am
    40    38    39   1
    41    39    40   1
    42    39    41   2
    43    40    42   2
    44    41    43   1
    45    42    43   1
    46    44    45   1
    47    45    46   1
    48    45    48   1
    49    46    47   2
    50    46    56  am
    51    48    49   1
    52    49    50  ar
    53    49    51  ar
    54    50    52  ar
    55    51    53  ar
    56    52    54  ar
    57    53    54  ar
    58    54    55   1
    59    56    57   1
    60    57    58   1
    61    57    60   1
    62    58    59   2
    63    58    64  am
    64    60    61   1
    65    61    62  ar
    66    61    63  ar
    67    64    65   1
    68    65    66   1
    69    65    69   1
    70    66    67  ar
    71    66    68  ar
    72    69    70   1
    73     1    71   1
    74     1    72   1
    75     1    73   1
    76     2    74   1
    77     3    75   1
    78     4    76   1
    79     4    77   1
    80     4    78   1
    81     5    79   1
    82     5    80   1
    83     5    81   1
    84     9    82   1
    85    10    83   1
    86    10    84   1
    87    11    85   1
    88    11    86   1
    89    12    87   1
    90    12    88   1
    91    15    89   1
    92    16    90   1
    93    16    91   1
    94    19    92   1
    95    20    93   1
    96    23    94   1
    97    23    95   1
    98    24    96   1
    99    25    97   1
   100    26    98   1
   101    29    99   1
   102    29   100   1
   103    30   101   1
   104    30   102   1
   105    33   103   1
   106    33   104   1
   107    34   105   1
   108    35   106   1
   109    38   107   1
   110    38   108   1
   111    41   109   1
   112    42   110   1
   113    43   111   1
   114    44   112   1
   115    45   113   1
   116    48   114   1
   117    48   115   1
   118    50   116   1
   119    51   117   1
   120    52   118   1
   121    53   119   1
   122    55   120   1
   123    56   121   1
   124    57   122   1
   125    60   123   1
   126    60   124   1
   127    64   125   1
   128    65   126   1
   129    69   127   1
   130    69   128   1
   131    70   129   1
@<TRIPOS>SUBSTRUCTURE
     1  DVA      2

