@<TRIPOS>MOLECULE
1zea_ligand_040
   129   131
SMALL
GAST_HUCK
****
This file was generated by PARSER (from files_GN.cpp)

@<TRIPOS>ATOM
      1 N          46.2785   55.6825   81.8236 N.4         1 DVA       0.2381
      2 CA         47.5348   55.7088   81.0530 C.3         1 DVA       0.0675
      3 CB         47.7756   57.1075   80.3786 C.3         1 DVA       0.0139
      4 CG1        49.0109   57.1008   79.4387 C.3         1 DVA      -0.0553
      5 CG2        46.5409   57.7250   79.6584 C.3         1 DVA      -0.0553
      6 C          47.5691   54.5535   80.1433 C.2         1 DVA       0.2295
      7 O          46.7038   54.5413   79.2761 O.2         1 DVA      -0.3905
      8 N          48.4190   53.5080   80.2084 N.am        1 DVA      -0.2471
      9 CA         49.4507   53.3054   81.2011 C.3         1 DVA       0.1339
     10 CB         50.3143   52.1350   80.6686 C.3         1 DVA      -0.0104
     11 CG         49.3761   51.3674   79.7337 C.3         1 DVA      -0.0281
     12 CD         48.4100   52.4525   79.2290 C.3         1 DVA       0.0371
     13 C          48.8992   53.0279   82.5269 C.2         1 DVA       0.2039
     14 O          49.3218   53.6615   83.4862 O.2         1 DVA      -0.3944
     15 N          47.9043   52.1587   82.6668 N.am        1 DVA      -0.2664
     16 CA         47.1838   51.9263   83.8792 C.3         1 DVA       0.1201
     17 C          46.0858   51.0074   83.6842 C.2         1 DVA       0.2008
     18 O          45.5103   51.0151   82.6039 O.2         1 DVA      -0.3947
     19 N          45.5934   50.3335   84.7195 N.am        1 DVA      -0.2618
     20 CA         44.4350   49.4784   84.7508 C.3         1 DVA       0.1539
     21 C          43.1444   50.1786   84.7508 C.2         1 DVA       0.2062
     22 O          42.1320   49.5139   84.5681 O.2         1 DVA      -0.3943
     23 CB         44.5279   48.3610   83.6682 C.3         1 DVA       0.0843
     24 OG         43.6731   48.6165   82.5563 O.3         1 DVA      -0.3903
     25 N          43.0669   51.4924   84.9528 N.am        1 DVA      -0.2635
     26 CA         41.9021   52.3249   84.9953 C.3         1 DVA       0.1330
     27 C          42.0746   53.1989   86.1484 C.2         1 DVA       0.2041
     28 O          42.5625   54.3097   85.9819 O.2         1 DVA      -0.3944
     29 CB         41.7883   53.0742   83.6279 C.3         1 DVA       0.0045
     30 CG         40.8339   54.3052   83.6010 C.3         1 DVA       0.0412
     31 CD         39.5317   54.0521   83.0083 C.2         1 DVA       0.1737
     32 OE1        39.3546   54.2169   81.8073 O.2         1 DVA      -0.3973
     33 NE2        38.4749   53.7703   83.7403 N.am        1 DVA      -0.3009
     34 N          41.8557   52.7184   87.3673 N.am        1 DVA      -0.2625
     35 CA         42.0367   53.4487   88.5973 C.3         1 DVA       0.1369
     36 C          41.2411   54.6794   88.6494 C.2         1 DVA       0.2055
     37 O          40.3459   54.8903   87.8432 O.2         1 DVA      -0.3942
     38 CB         41.7682   52.5169   89.8317 C.3         1 DVA       0.0145
     39 CG         42.9980   52.1549   90.5704 C.2         1 DVA      -0.0027
     40 ND1        43.2517   52.4553   91.8558 N.2         1 DVA      -0.3252
     41 CD2        44.1105   51.4888   90.0642 C.2         1 DVA       0.0291
     42 CE1        44.4798   51.9890   92.1373 C.2         1 DVA       0.0907
     43 NE2        45.0042   51.4021   91.0527 N.pl3       1 DVA      -0.2752
     44 N          41.4807   55.5390   89.6263 N.am        1 DVA      -0.2620
     45 CA         40.7867   56.7716   89.8875 C.3         1 DVA       0.1390
     46 C          41.0960   57.1242   91.2642 C.2         1 DVA       0.2058
     47 O          42.1663   57.6853   91.5133 O.2         1 DVA      -0.3942
     48 CB         41.0613   57.8987   88.8311 C.3         1 DVA       0.0163
     49 CG         42.4496   57.9510   88.2874 C.ar        1 DVA      -0.0493
     50 CD1        42.7359   57.4649   86.9856 C.ar        1 DVA      -0.0685
     51 CD2        43.5098   58.5083   89.0412 C.ar        1 DVA      -0.0685
     52 CE1        44.0476   57.4764   86.4774 C.ar        1 DVA      -0.0398
     53 CE2        44.8227   58.5178   88.5331 C.ar        1 DVA      -0.0398
     54 CZ         45.1020   57.9954   87.2555 C.ar        1 DVA       0.0805
     55 OH         46.3648   57.9909   86.7560 O.3         1 DVA      -0.3376
     56 N          40.2274   56.8313   92.2348 N.am        1 DVA      -0.2620
     57 CA         40.3902   57.0794   93.6383 C.3         1 DVA       0.1423
     58 C          39.7939   58.3821   93.9324 C.2         1 DVA       0.2051
     59 O          38.8475   58.4623   94.7059 O.2         1 DVA      -0.3943
     60 CB         39.7886   55.8670   94.4229 C.3         1 DVA       0.0406
     61 CG         40.5436   54.6077   94.2434 C.2         1 DVA       0.0393
     62 OD1        41.8698   54.5540   94.5176 O.co2       1 DVA      -0.5688
     63 OD2        39.9313   53.4900   93.7853 O.co2       1 DVA      -0.5688
     64 N          40.3322   59.4612   93.3705 N.am        1 DVA      -0.2671
     65 CA         40.0171   60.8608   93.4998 C.3         1 DVA       0.1173
     66 C          38.8336   61.2318   94.3080 C.2         1 DVA       0.0623
     67 O          37.5973   60.9997   93.8091 O.co2       1 DVA      -0.5665
     68 OXT        38.9492   61.3990   95.6448 O.co2       1 DVA      -0.5665
     69 CB         41.2952   61.6054   93.9818 C.3         1 DVA       0.0789
     70 OG         42.0754   60.8138   94.8826 O.3         1 DVA      -0.3910
     71 H1         46.2608   56.4697   82.4760 H           1 DVA       0.2015
     72 H2         46.2194   54.8090   82.3523 H           1 DVA       0.2015
     73 H3         45.4764   55.7462   81.1919 H           1 DVA       0.2015
     74 H4         48.3167   55.6123   81.8081 H           1 DVA       0.1101
     75 H5         48.0170   57.8000   81.1919 H           1 DVA       0.0376
     76 H6         49.2550   58.1158   79.1230 H           1 DVA       0.0236
     77 H7         48.8171   56.5015   78.5483 H           1 DVA       0.0236
     78 H8         49.8811   56.6888   79.9511 H           1 DVA       0.0236
     79 H9         45.7121   57.8402   80.3571 H           1 DVA       0.0236
     80 H10        46.2156   57.1047   78.8227 H           1 DVA       0.0236
     81 H11        46.7870   58.7153   79.2698 H           1 DVA       0.0236
     82 H12        50.0996   54.1910   81.2425 H           1 DVA       0.0802
     83 H13        50.7156   51.4923   81.4571 H           1 DVA       0.0313
     84 H14        51.1555   52.5289   80.0902 H           1 DVA       0.0313
     85 H15        48.8363   50.5998   80.2942 H           1 DVA       0.0287
     86 H16        49.9196   50.8896   78.9144 H           1 DVA       0.0287
     87 H17        48.7526   52.8383   78.2661 H           1 DVA       0.0524
     88 H18        47.4128   52.0232   79.1082 H           1 DVA       0.0524
     89 H19        47.6000   51.6920   81.8727 H           1 DVA       0.1881
     90 H20        46.7714   52.8751   84.2358 H           1 DVA       0.0763
     91 H21        47.8761   51.5475   84.6358 H           1 DVA       0.0763
     92 H22        46.0492   50.4597   85.5646 H           1 DVA       0.1884
     93 H23        44.4907   48.9675   85.7197 H           1 DVA       0.0823
     94 H24        44.2332   47.4007   84.0988 H           1 DVA       0.0606
     95 H25        45.5580   48.2648   83.3195 H           1 DVA       0.0606
     96 H26        44.2291   48.4358   81.7693 H           1 DVA       0.2097
     97 H27        43.9039   51.9571   85.0972 H           1 DVA       0.1883
     98 H28        40.9903   51.7280   85.1179 H           1 DVA       0.0801
     99 H29        41.4910   52.3573   82.8584 H           1 DVA       0.0337
    100 H30        42.7867   53.4183   83.3500 H           1 DVA       0.0337
    101 H31        41.3134   55.0823   82.9971 H           1 DVA       0.0504
    102 H32        40.7268   54.7173   84.6133 H           1 DVA       0.0504
    103 H33        37.6047   53.6862   83.3184 H           1 DVA       0.1814
    104 H34        38.5610   53.6010   84.6924 H           1 DVA       0.1814
    105 H35        41.5981   51.7840   87.4281 H           1 DVA       0.1885
    106 H36        43.0878   53.7674   88.6095 H           1 DVA       0.0817
    107 H37        41.2858   51.5857   89.5274 H           1 DVA       0.0420
    108 H38        41.0793   52.9844   90.5406 H           1 DVA       0.0420
    109 H39        44.2237   51.1305   89.1145 H           1 DVA       0.0729
    110 H40        44.9443   52.0683   93.0422 H           1 DVA       0.1199
    111 H41        45.8788   50.9952   90.9933 H           1 DVA       0.2361
    112 H42        42.1911   55.3029   90.2499 H           1 DVA       0.1885
    113 H43        39.7107   56.5463   89.8297 H           1 DVA       0.0821
    114 H44        40.7981   58.8701   89.2568 H           1 DVA       0.0453
    115 H45        40.3642   57.7544   88.0006 H           1 DVA       0.0453
    116 H46        41.9852   57.0793   86.3964 H           1 DVA       0.0530
    117 H47        43.3288   58.9006   89.9641 H           1 DVA       0.0530
    118 H48        44.2395   57.1017   85.5478 H           1 DVA       0.0525
    119 H49        45.5827   58.9146   89.1010 H           1 DVA       0.0525
    120 H50        46.8449   58.7124   87.2191 H           1 DVA       0.2458
    121 H51        39.4157   56.3552   91.9681 H           1 DVA       0.1884
    122 H52        41.4502   57.1396   93.9222 H           1 DVA       0.0819
    123 H53        38.7543   55.7062   94.1023 H           1 DVA       0.0478
    124 H54        39.7703   56.0975   95.4906 H           1 DVA       0.0478
    125 H55        41.0710   59.2628   92.7685 H           1 DVA       0.1876
    126 H56        39.8214   61.2012   92.4782 H           1 DVA       0.0749
    127 H57        41.0138   62.5271   94.4956 H           1 DVA       0.0599
    128 H58        41.9135   61.8698   93.1136 H           1 DVA       0.0599
    129 H59        42.6361   60.2434   94.3119 H           1 DVA       0.2096
@<TRIPOS>BOND
     1     1     2   1
     2     2     3   1
     3     2     6   1
     4     3     4   1
     5     3     5   1
     6     6     7   2
     7     6     8  am
     8     8     9   1
     9     8    12   1
    10     9    10   1
    11     9    13   1
    12    10    11   1
    13    11    12   1
    14    13    14   2
    15    13    15  am
    16    15    16   1
    17    16    17   1
    18    17    18   2
    19    17    19  am
    20    19    20   1
    21    20    21   1
    22    20    23   1
    23    21    22   2
    24    21    25  am
    25    23    24   1
    26    25    26   1
    27    26    27   1
    28    26    29   1
    29    27    28   2
    30    27    34  am
    31    29    30   1
    32    30    31   1
    33    31    32   2
    34    31    33  am
    35    34    35   1
    36    35    36   1
    37    35    38   1
    38    36    37   2
    39    36    44  am
    40    38    39   1
    41    39    40   1
    42    39    41   2
    43    40    42   2
    44    41    43   1
    45    42    43   1
    46    44    45   1
    47    45    46   1
    48    45    48   1
    49    46    47   2
    50    46    56  am
    51    48    49   1
    52    49    50  ar
    53    49    51  ar
    54    50    52  ar
    55    51    53  ar
    56    52    54  ar
    57    53    54  ar
    58    54    55   1
    59    56    57   1
    60    57    58   1
    61    57    60   1
    62    58    59   2
    63    58    64  am
    64    60    61   1
    65    61    62  ar
    66    61    63  ar
    67    64    65   1
    68    65    66   1
    69    65    69   1
    70    66    67  ar
    71    66    68  ar
    72    69    70   1
    73     1    71   1
    74     1    72   1
    75     1    73   1
    76     2    74   1
    77     3    75   1
    78     4    76   1
    79     4    77   1
    80     4    78   1
    81     5    79   1
    82     5    80   1
    83     5    81   1
    84     9    82   1
    85    10    83   1
    86    10    84   1
    87    11    85   1
    88    11    86   1
    89    12    87   1
    90    12    88   1
    91    15    89   1
    92    16    90   1
    93    16    91   1
    94    19    92   1
    95    20    93   1
    96    23    94   1
    97    23    95   1
    98    24    96   1
    99    25    97   1
   100    26    98   1
   101    29    99   1
   102    29   100   1
   103    30   101   1
   104    30   102   1
   105    33   103   1
   106    33   104   1
   107    34   105   1
   108    35   106   1
   109    38   107   1
   110    38   108   1
   111    41   109   1
   112    42   110   1
   113    43   111   1
   114    44   112   1
   115    45   113   1
   116    48   114   1
   117    48   115   1
   118    50   116   1
   119    51   117   1
   120    52   118   1
   121    53   119   1
   122    55   120   1
   123    56   121   1
   124    57   122   1
   125    60   123   1
   126    60   124   1
   127    64   125   1
   128    65   126   1
   129    69   127   1
   130    69   128   1
   131    70   129   1
@<TRIPOS>SUBSTRUCTURE
     1  DVA      2

