@<TRIPOS>MOLECULE
1zea_ligand_055
   129   131
SMALL
GAST_HUCK
****
This file was generated by PARSER (from files_GN.cpp)

@<TRIPOS>ATOM
      1 N          52.3614   51.4667   84.4220 N.4         1 DVA       0.2381
      2 CA         53.0777   52.7314   84.6520 C.3         1 DVA       0.0675
      3 CB         54.6213   52.4836   84.8265 C.3         1 DVA       0.0139
      4 CG1        55.3841   52.4980   83.4687 C.3         1 DVA      -0.0553
      5 CG2        55.3007   53.5066   85.7892 C.3         1 DVA      -0.0553
      6 C          52.4420   53.3918   85.8000 C.2         1 DVA       0.2295
      7 O          52.6639   52.8762   86.8918 O.2         1 DVA      -0.3905
      8 N          51.6659   54.4898   85.7460 N.am        1 DVA      -0.2471
      9 CA         51.1252   55.0936   84.5455 C.3         1 DVA       0.1339
     10 CB         50.2981   56.3105   85.0419 C.3         1 DVA      -0.0104
     11 CG         50.8627   56.6039   86.4342 C.3         1 DVA      -0.0281
     12 CD         51.2981   55.2190   86.9301 C.3         1 DVA       0.0371
     13 C          50.2918   54.1994   83.7453 C.2         1 DVA       0.2039
     14 O          49.4890   53.4694   84.3229 O.2         1 DVA      -0.3944
     15 N          50.3295   54.2570   82.4199 N.am        1 DVA      -0.2664
     16 CA         49.4858   53.5172   81.5142 C.3         1 DVA       0.1201
     17 C          48.0600   53.8039   81.5897 C.2         1 DVA       0.2008
     18 O          47.6480   54.6197   82.4049 O.2         1 DVA      -0.3947
     19 N          47.2216   53.1110   80.8219 N.am        1 DVA      -0.2618
     20 CA         45.7772   53.1636   80.8268 C.3         1 DVA       0.1539
     21 C          45.1576   52.7726   82.1023 C.2         1 DVA       0.2062
     22 O          45.8783   52.4012   83.0226 O.2         1 DVA      -0.3943
     23 CB         45.2549   54.5021   80.2264 C.3         1 DVA       0.0843
     24 OG         45.3314   55.5925   81.1419 O.3         1 DVA      -0.3903
     25 N          43.8375   52.7731   82.2447 N.am        1 DVA      -0.2635
     26 CA         43.0933   52.3254   83.3912 C.3         1 DVA       0.1330
     27 C          43.5425   52.8762   84.6657 C.2         1 DVA       0.2041
     28 O          44.2542   53.8712   84.7008 O.2         1 DVA      -0.3944
     29 CB         41.5698   52.5623   83.1631 C.3         1 DVA       0.0045
     30 CG         41.0884   54.0426   83.2444 C.3         1 DVA       0.0412
     31 CD         39.6870   54.1834   82.8829 C.2         1 DVA       0.1737
     32 OE1        39.3637   54.6146   81.7859 O.2         1 DVA      -0.3973
     33 NE2        38.7257   53.8437   83.7146 N.am        1 DVA      -0.3009
     34 N          43.2082   52.2415   85.7893 N.am        1 DVA      -0.2625
     35 CA         43.5200   52.5258   87.1670 C.3         1 DVA       0.1369
     36 C          44.4812   51.5250   87.6243 C.2         1 DVA       0.2055
     37 O          44.1190   50.6478   88.3964 O.2         1 DVA      -0.3942
     38 CB         43.9690   53.9616   87.5915 C.3         1 DVA       0.0145
     39 CG         43.1270   55.0480   87.0644 C.2         1 DVA      -0.0027
     40 ND1        43.5673   56.2832   86.7423 N.2         1 DVA      -0.3252
     41 CD2        41.7482   55.0413   86.8381 C.2         1 DVA       0.0291
     42 CE1        42.5144   57.0027   86.3290 C.2         1 DVA       0.0907
     43 NE2        41.4043   56.2349   86.3602 N.pl3       1 DVA      -0.2752
     44 N          45.7473   51.5654   87.1918 N.am        1 DVA      -0.2620
     45 CA         46.8354   50.6745   87.5380 C.3         1 DVA       0.1390
     46 C          47.1746   50.6842   88.9704 C.2         1 DVA       0.2058
     47 O          46.6271   51.4914   89.7152 O.2         1 DVA      -0.3942
     48 CB         46.6151   49.2218   86.9964 C.3         1 DVA       0.0163
     49 CG         45.8616   49.1360   85.7081 C.ar        1 DVA      -0.0493
     50 CD1        44.4762   48.8617   85.6882 C.ar        1 DVA      -0.0685
     51 CD2        46.5327   49.3346   84.4792 C.ar        1 DVA      -0.0685
     52 CE1        43.7675   48.8308   84.4768 C.ar        1 DVA      -0.0398
     53 CE2        45.8283   49.2833   83.2643 C.ar        1 DVA      -0.0398
     54 CZ         44.4421   49.0451   83.2598 C.ar        1 DVA       0.0805
     55 OH         43.7099   49.0767   82.1248 O.3         1 DVA      -0.3376
     56 N          48.0641   49.8261   89.4553 N.am        1 DVA      -0.2620
     57 CA         48.3902   49.5931   90.8408 C.3         1 DVA       0.1423
     58 C          47.8942   48.2667   91.1867 C.2         1 DVA       0.2051
     59 O          48.4600   47.2679   90.7516 O.2         1 DVA      -0.3943
     60 CB         49.9178   49.7874   91.0849 C.3         1 DVA       0.0406
     61 CG         50.3749   51.1715   90.8653 C.2         1 DVA       0.0393
     62 OD1        50.8859   51.9082   91.8797 O.co2       1 DVA      -0.5688
     63 OD2        50.3999   51.6988   89.6189 O.co2       1 DVA      -0.5688
     64 N          46.7422   48.1573   91.8436 N.am        1 DVA      -0.2671
     65 CA         46.0539   46.9661   92.2551 C.3         1 DVA       0.1173
     66 C          46.1507   45.8615   91.2722 C.2         1 DVA       0.0623
     67 O          46.4971   44.6032   91.6210 O.co2       1 DVA      -0.5665
     68 OXT        46.0230   46.1104   89.9512 O.co2       1 DVA      -0.5665
     69 CB         46.4164   46.5642   93.7147 C.3         1 DVA       0.0789
     70 OG         47.7677   46.1417   93.8684 O.3         1 DVA      -0.3910
     71 H1         52.7763   50.9569   83.6462 H           1 DVA       0.2015
     72 H2         51.3855   51.6726   84.2066 H           1 DVA       0.2015
     73 H3         52.4052   50.8871   85.2607 H           1 DVA       0.2015
     74 H4         52.9656   53.3333   83.7507 H           1 DVA       0.1101
     75 H5         54.7632   51.4884   85.2660 H           1 DVA       0.0376
     76 H6         56.4298   52.2072   83.6149 H           1 DVA       0.0236
     77 H7         55.3594   53.4948   83.0205 H           1 DVA       0.0236
     78 H8         54.9467   51.7954   82.7607 H           1 DVA       0.0236
     79 H9         54.9268   53.3721   86.8089 H           1 DVA       0.0236
     80 H10        55.0990   54.5369   85.4716 H           1 DVA       0.0236
     81 H11        56.3878   53.3527   85.8088 H           1 DVA       0.0236
     82 H12        51.9606   55.4764   83.9463 H           1 DVA       0.0802
     83 H13        49.2315   56.0776   85.1402 H           1 DVA       0.0313
     84 H14        50.4064   57.1758   84.3816 H           1 DVA       0.0313
     85 H15        50.1163   57.0579   87.0923 H           1 DVA       0.0287
     86 H16        51.7303   57.2696   86.3598 H           1 DVA       0.0287
     87 H17        52.1337   55.3326   87.6254 H           1 DVA       0.0524
     88 H18        50.4726   54.7091   87.4324 H           1 DVA       0.0524
     89 H19        50.9722   54.8669   82.0195 H           1 DVA       0.1881
     90 H20        49.6582   52.4457   81.6802 H           1 DVA       0.0763
     91 H21        49.8209   53.7469   80.4988 H           1 DVA       0.0763
     92 H22        47.6316   52.4601   80.2271 H           1 DVA       0.1884
     93 H23        45.4774   52.3872   80.1163 H           1 DVA       0.0823
     94 H24        44.2046   54.3854   79.9462 H           1 DVA       0.0606
     95 H25        45.8001   54.7545   79.3105 H           1 DVA       0.0606
     96 H26        46.2866   55.7801   81.2462 H           1 DVA       0.2097
     97 H27        43.3231   53.0611   81.4803 H           1 DVA       0.1883
     98 H28        43.2447   51.2429   83.4409 H           1 DVA       0.0801
     99 H29        41.0110   51.9680   83.8936 H           1 DVA       0.0337
    100 H30        41.3185   52.1699   82.1729 H           1 DVA       0.0337
    101 H31        41.7078   54.6543   82.5831 H           1 DVA       0.0504
    102 H32        41.2250   54.4187   84.2604 H           1 DVA       0.0504
    103 H33        37.7978   53.9277   83.4361 H           1 DVA       0.1814
    104 H34        38.9364   53.4907   84.5962 H           1 DVA       0.1814
    105 H35        42.7047   51.4169   85.6884 H           1 DVA       0.1885
    106 H36        42.5802   52.3549   87.7097 H           1 DVA       0.0817
    107 H37        45.0011   54.1429   87.2841 H           1 DVA       0.0420
    108 H38        43.9413   54.0438   88.6813 H           1 DVA       0.0420
    109 H39        41.1017   54.2563   86.9773 H           1 DVA       0.0729
    110 H40        42.5519   57.9761   86.0222 H           1 DVA       0.1199
    111 H41        40.5121   56.5389   86.1226 H           1 DVA       0.2361
    112 H42        45.9717   52.2914   86.5864 H           1 DVA       0.1885
    113 H43        47.7163   51.0739   87.0204 H           1 DVA       0.0821
    114 H44        46.1072   48.6327   87.7617 H           1 DVA       0.0453
    115 H45        47.5867   48.7428   86.8414 H           1 DVA       0.0453
    116 H46        43.9637   48.7149   86.5622 H           1 DVA       0.0530
    117 H47        47.5404   49.5229   84.4607 H           1 DVA       0.0530
    118 H48        42.7619   48.6499   84.4855 H           1 DVA       0.0525
    119 H49        46.3230   49.4371   82.3822 H           1 DVA       0.0525
    120 H50        44.3375   48.9603   81.3814 H           1 DVA       0.2458
    121 H51        48.5059   49.2473   88.8116 H           1 DVA       0.1884
    122 H52        47.8767   50.3089   91.4944 H           1 DVA       0.0819
    123 H53        50.4868   49.1243   90.4308 H           1 DVA       0.0478
    124 H54        50.1422   49.5095   92.1158 H           1 DVA       0.0478
    125 H55        46.3069   48.9921   92.0812 H           1 DVA       0.1876
    126 H56        44.9967   47.2307   92.2773 H           1 DVA       0.0749
    127 H57        45.7695   45.7441   94.0367 H           1 DVA       0.0599
    128 H58        46.2376   47.4095   94.3829 H           1 DVA       0.0599
    129 H59        48.3147   46.9340   93.6835 H           1 DVA       0.2096
@<TRIPOS>BOND
     1     1     2   1
     2     2     3   1
     3     2     6   1
     4     3     4   1
     5     3     5   1
     6     6     7   2
     7     6     8  am
     8     8     9   1
     9     8    12   1
    10     9    10   1
    11     9    13   1
    12    10    11   1
    13    11    12   1
    14    13    14   2
    15    13    15  am
    16    15    16   1
    17    16    17   1
    18    17    18   2
    19    17    19  am
    20    19    20   1
    21    20    21   1
    22    20    23   1
    23    21    22   2
    24    21    25  am
    25    23    24   1
    26    25    26   1
    27    26    27   1
    28    26    29   1
    29    27    28   2
    30    27    34  am
    31    29    30   1
    32    30    31   1
    33    31    32   2
    34    31    33  am
    35    34    35   1
    36    35    36   1
    37    35    38   1
    38    36    37   2
    39    36    44  am
    40    38    39   1
    41    39    40   1
    42    39    41   2
    43    40    42   2
    44    41    43   1
    45    42    43   1
    46    44    45   1
    47    45    46   1
    48    45    48   1
    49    46    47   2
    50    46    56  am
    51    48    49   1
    52    49    50  ar
    53    49    51  ar
    54    50    52  ar
    55    51    53  ar
    56    52    54  ar
    57    53    54  ar
    58    54    55   1
    59    56    57   1
    60    57    58   1
    61    57    60   1
    62    58    59   2
    63    58    64  am
    64    60    61   1
    65    61    62  ar
    66    61    63  ar
    67    64    65   1
    68    65    66   1
    69    65    69   1
    70    66    67  ar
    71    66    68  ar
    72    69    70   1
    73     1    71   1
    74     1    72   1
    75     1    73   1
    76     2    74   1
    77     3    75   1
    78     4    76   1
    79     4    77   1
    80     4    78   1
    81     5    79   1
    82     5    80   1
    83     5    81   1
    84     9    82   1
    85    10    83   1
    86    10    84   1
    87    11    85   1
    88    11    86   1
    89    12    87   1
    90    12    88   1
    91    15    89   1
    92    16    90   1
    93    16    91   1
    94    19    92   1
    95    20    93   1
    96    23    94   1
    97    23    95   1
    98    24    96   1
    99    25    97   1
   100    26    98   1
   101    29    99   1
   102    29   100   1
   103    30   101   1
   104    30   102   1
   105    33   103   1
   106    33   104   1
   107    34   105   1
   108    35   106   1
   109    38   107   1
   110    38   108   1
   111    41   109   1
   112    42   110   1
   113    43   111   1
   114    44   112   1
   115    45   113   1
   116    48   114   1
   117    48   115   1
   118    50   116   1
   119    51   117   1
   120    52   118   1
   121    53   119   1
   122    55   120   1
   123    56   121   1
   124    57   122   1
   125    60   123   1
   126    60   124   1
   127    64   125   1
   128    65   126   1
   129    69   127   1
   130    69   128   1
   131    70   129   1
@<TRIPOS>SUBSTRUCTURE
     1  DVA      2

