@<TRIPOS>MOLECULE
1zea_ligand_047
   129   131
SMALL
GAST_HUCK
****
This file was generated by PARSER (from files_GN.cpp)

@<TRIPOS>ATOM
      1 N          42.6713   58.3020   89.6164 N.4         1 DVA       0.2381
      2 CA         41.6512   57.8560   90.5947 C.3         1 DVA       0.0675
      3 CB         40.4599   58.8695   90.7057 C.3         1 DVA       0.0139
      4 CG1        40.7200   60.0349   91.7056 C.3         1 DVA      -0.0553
      5 CG2        40.0325   59.4208   89.3137 C.3         1 DVA      -0.0553
      6 C          42.2661   57.5410   91.8895 C.2         1 DVA       0.2295
      7 O          43.1567   58.3020   92.2620 O.2         1 DVA      -0.3905
      8 N          41.8811   56.5524   92.7203 N.am        1 DVA      -0.2471
      9 CA         40.8280   55.5888   92.4794 C.3         1 DVA       0.1339
     10 CB         40.5293   54.9823   93.8714 C.3         1 DVA      -0.0104
     11 CG         41.8513   55.1240   94.6347 C.3         1 DVA      -0.0281
     12 CD         42.4826   56.3837   94.0187 C.3         1 DVA       0.0371
     13 C          41.1908   54.5707   91.4941 C.2         1 DVA       0.2039
     14 O          42.3272   54.1058   91.5103 O.2         1 DVA      -0.3944
     15 N          40.2985   54.1716   90.5985 N.am        1 DVA      -0.2664
     16 CA         40.4622   53.1754   89.5803 C.3         1 DVA       0.1201
     17 C          40.7170   53.7784   88.2835 C.2         1 DVA       0.2008
     18 O          39.8350   54.4555   87.7706 O.2         1 DVA      -0.3947
     19 N          41.8559   53.5363   87.6480 N.am        1 DVA      -0.2618
     20 CA         42.2203   53.9610   86.3174 C.3         1 DVA       0.1539
     21 C          43.4291   53.2576   85.9049 C.2         1 DVA       0.2062
     22 O          44.3876   53.9074   85.5031 O.2         1 DVA      -0.3943
     23 CB         41.0939   53.7236   85.2684 C.3         1 DVA       0.0843
     24 OG         41.5040   54.0620   83.9442 O.3         1 DVA      -0.3903
     25 N          43.4518   51.9265   85.9114 N.am        1 DVA      -0.2635
     26 CA         44.5142   51.0584   85.4777 C.3         1 DVA       0.1330
     27 C          45.7951   51.4729   86.0530 C.2         1 DVA       0.2041
     28 O          46.0059   51.2545   87.2391 O.2         1 DVA      -0.3944
     29 CB         44.1167   49.5938   85.8354 C.3         1 DVA       0.0045
     30 CG         45.0879   48.4815   85.3459 C.3         1 DVA       0.0412
     31 CD         45.0749   48.2920   83.9083 C.2         1 DVA       0.1737
     32 OE1        44.1569   47.6795   83.3809 O.2         1 DVA      -0.3973
     33 NE2        46.0657   48.6995   83.1451 N.am        1 DVA      -0.3009
     34 N          46.6391   52.2008   85.3269 N.am        1 DVA      -0.2625
     35 CA         47.8354   52.8477   85.7782 C.3         1 DVA       0.1369
     36 C          48.5816   53.2638   84.5947 C.2         1 DVA       0.2055
     37 O          48.0301   54.0026   83.7839 O.2         1 DVA      -0.3942
     38 CB         47.5099   54.0443   86.7338 C.3         1 DVA       0.0145
     39 CG         48.6714   54.6175   87.4348 C.2         1 DVA      -0.0027
     40 ND1        49.7081   53.9253   87.9403 N.2         1 DVA      -0.3252
     41 CD2        48.8344   55.9504   87.8232 C.2         1 DVA       0.0291
     42 CE1        50.5050   54.7967   88.5844 C.2         1 DVA       0.0907
     43 NE2        49.9674   56.0277   88.5235 N.pl3       1 DVA      -0.2752
     44 N          49.7954   52.7682   84.3639 N.am        1 DVA      -0.2620
     45 CA         50.6318   52.8480   83.1913 C.3         1 DVA       0.1390
     46 C          49.9348   52.9517   81.9064 C.2         1 DVA       0.2058
     47 O          49.7842   54.0551   81.3957 O.2         1 DVA      -0.3942
     48 CB         51.8352   53.8363   83.3610 C.3         1 DVA       0.0163
     49 CG         51.4958   55.2830   83.4671 C.ar        1 DVA      -0.0493
     50 CD1        50.9501   55.8108   84.6609 C.ar        1 DVA      -0.0685
     51 CD2        51.7166   56.1702   82.3837 C.ar        1 DVA      -0.0685
     52 CE1        50.5997   57.1685   84.7603 C.ar        1 DVA      -0.0398
     53 CE2        51.3706   57.5304   82.4808 C.ar        1 DVA      -0.0398
     54 CZ         50.8039   58.0366   83.6690 C.ar        1 DVA       0.0805
     55 OH         50.4517   59.3454   83.7894 O.3         1 DVA      -0.3376
     56 N          49.4566   51.8568   81.3157 N.am        1 DVA      -0.2620
     57 CA         48.8080   51.7696   80.0298 C.3         1 DVA       0.1423
     58 C          49.7301   51.3378   78.9761 C.2         1 DVA       0.2051
     59 O          49.3341   51.4313   77.8210 O.2         1 DVA      -0.3943
     60 CB         47.5724   50.8241   80.1588 C.3         1 DVA       0.0406
     61 CG         46.3952   51.5291   80.7042 C.2         1 DVA       0.0393
     62 OD1        45.8089   51.1267   81.8521 O.co2       1 DVA      -0.5688
     63 OD2        45.8572   52.5781   80.0371 O.co2       1 DVA      -0.5688
     64 N          50.9661   50.9216   79.2494 N.am        1 DVA      -0.2671
     65 CA         52.0820   50.5897   78.3952 C.3         1 DVA       0.1173
     66 C          52.4892   49.1847   78.6473 C.2         1 DVA       0.0623
     67 O          52.4569   48.6951   79.9090 O.co2       1 DVA      -0.5665
     68 OXT        53.3910   48.6027   77.8250 O.co2       1 DVA      -0.5665
     69 CB         51.9788   50.9211   76.8790 C.3         1 DVA       0.0789
     70 OG         50.8944   50.2687   76.2204 O.3         1 DVA      -0.3910
     71 H1         42.2445   58.3960   88.6938 H           1 DVA       0.2015
     72 H2         43.4205   57.6129   89.5712 H           1 DVA       0.2015
     73 H3         43.0558   59.2051   89.9082 H           1 DVA       0.2015
     74 H4         41.2674   56.9292   90.1649 H           1 DVA       0.1101
     75 H5         39.5898   58.3321   91.0904 H           1 DVA       0.0376
     76 H6         39.8511   60.6847   91.7601 H           1 DVA       0.0236
     77 H7         41.5882   60.6186   91.3970 H           1 DVA       0.0236
     78 H8         40.9011   59.6438   92.7082 H           1 DVA       0.0236
     79 H9         39.8204   58.5961   88.6259 H           1 DVA       0.0236
     80 H10        40.8218   60.0406   88.8811 H           1 DVA       0.0236
     81 H11        39.1343   60.0254   89.3967 H           1 DVA       0.0236
     82 H12        39.9205   56.1082   92.1636 H           1 DVA       0.0802
     83 H13        40.1967   53.9430   93.8312 H           1 DVA       0.0313
     84 H14        39.7569   55.5726   94.3746 H           1 DVA       0.0313
     85 H15        42.4879   54.2560   94.4475 H           1 DVA       0.0287
     86 H16        41.6926   55.2315   95.7107 H           1 DVA       0.0287
     87 H17        42.2678   57.2576   94.6456 H           1 DVA       0.0524
     88 H18        43.5659   56.2548   93.9412 H           1 DVA       0.0524
     89 H19        39.4188   54.5846   90.6511 H           1 DVA       0.1881
     90 H20        39.5297   52.6144   89.5174 H           1 DVA       0.0763
     91 H21        41.2482   52.4606   89.8437 H           1 DVA       0.0763
     92 H22        42.5113   53.0058   88.1306 H           1 DVA       0.1884
     93 H23        42.4246   55.0354   86.3509 H           1 DVA       0.0823
     94 H24        40.2232   54.3378   85.5149 H           1 DVA       0.0606
     95 H25        40.7870   52.6703   85.2748 H           1 DVA       0.0606
     96 H26        41.6855   55.0265   83.9784 H           1 DVA       0.2097
     97 H27        42.6490   51.4802   86.2245 H           1 DVA       0.1883
     98 H28        44.5556   51.1312   84.3865 H           1 DVA       0.0801
     99 H29        43.1218   49.3828   85.4249 H           1 DVA       0.0337
    100 H30        44.0232   49.5051   86.9234 H           1 DVA       0.0337
    101 H31        44.7786   47.5392   85.8026 H           1 DVA       0.0504
    102 H32        46.0942   48.7002   85.7059 H           1 DVA       0.0504
    103 H33        46.0336   48.5373   82.1894 H           1 DVA       0.1814
    104 H34        46.8281   49.1579   83.5311 H           1 DVA       0.1814
    105 H35        46.4003   52.3269   84.3949 H           1 DVA       0.1885
    106 H36        48.4168   52.1081   86.3392 H           1 DVA       0.0817
    107 H37        46.8275   53.7028   87.5153 H           1 DVA       0.0420
    108 H38        46.9882   54.8272   86.1777 H           1 DVA       0.0420
    109 H39        48.1967   56.7273   87.6297 H           1 DVA       0.0729
    110 H40        51.3696   54.5558   89.0674 H           1 DVA       0.1199
    111 H41        50.3402   56.8280   88.9284 H           1 DVA       0.2361
    112 H42        50.1429   52.1954   85.0690 H           1 DVA       0.1885
    113 H43        51.1205   51.8669   83.1930 H           1 DVA       0.0821
    114 H44        52.5135   53.6811   82.5164 H           1 DVA       0.0453
    115 H45        52.4055   53.5582   84.2568 H           1 DVA       0.0453
    116 H46        50.8155   55.2066   85.4718 H           1 DVA       0.0530
    117 H47        52.1256   55.8296   81.5106 H           1 DVA       0.0530
    118 H48        50.1984   57.5311   85.6264 H           1 DVA       0.0525
    119 H49        51.5284   58.1542   81.6834 H           1 DVA       0.0525
    120 H50        51.0644   59.8476   83.2093 H           1 DVA       0.2458
    121 H51        49.5791   51.0208   81.7989 H           1 DVA       0.1884
    122 H52        48.4504   52.7577   79.7107 H           1 DVA       0.0819
    123 H53        47.8304   49.9777   80.8088 H           1 DVA       0.0478
    124 H54        47.2855   50.4211   79.1822 H           1 DVA       0.0478
    125 H55        51.1672   50.8374   80.1936 H           1 DVA       0.1876
    126 H56        52.9025   51.2076   78.7696 H           1 DVA       0.0749
    127 H57        52.8988   50.6339   76.3751 H           1 DVA       0.0599
    128 H58        51.8593   51.9988   76.7465 H           1 DVA       0.0599
    129 H59        51.1016   49.3157   76.2426 H           1 DVA       0.2096
@<TRIPOS>BOND
     1     1     2   1
     2     2     3   1
     3     2     6   1
     4     3     4   1
     5     3     5   1
     6     6     7   2
     7     6     8  am
     8     8     9   1
     9     8    12   1
    10     9    10   1
    11     9    13   1
    12    10    11   1
    13    11    12   1
    14    13    14   2
    15    13    15  am
    16    15    16   1
    17    16    17   1
    18    17    18   2
    19    17    19  am
    20    19    20   1
    21    20    21   1
    22    20    23   1
    23    21    22   2
    24    21    25  am
    25    23    24   1
    26    25    26   1
    27    26    27   1
    28    26    29   1
    29    27    28   2
    30    27    34  am
    31    29    30   1
    32    30    31   1
    33    31    32   2
    34    31    33  am
    35    34    35   1
    36    35    36   1
    37    35    38   1
    38    36    37   2
    39    36    44  am
    40    38    39   1
    41    39    40   1
    42    39    41   2
    43    40    42   2
    44    41    43   1
    45    42    43   1
    46    44    45   1
    47    45    46   1
    48    45    48   1
    49    46    47   2
    50    46    56  am
    51    48    49   1
    52    49    50  ar
    53    49    51  ar
    54    50    52  ar
    55    51    53  ar
    56    52    54  ar
    57    53    54  ar
    58    54    55   1
    59    56    57   1
    60    57    58   1
    61    57    60   1
    62    58    59   2
    63    58    64  am
    64    60    61   1
    65    61    62  ar
    66    61    63  ar
    67    64    65   1
    68    65    66   1
    69    65    69   1
    70    66    67  ar
    71    66    68  ar
    72    69    70   1
    73     1    71   1
    74     1    72   1
    75     1    73   1
    76     2    74   1
    77     3    75   1
    78     4    76   1
    79     4    77   1
    80     4    78   1
    81     5    79   1
    82     5    80   1
    83     5    81   1
    84     9    82   1
    85    10    83   1
    86    10    84   1
    87    11    85   1
    88    11    86   1
    89    12    87   1
    90    12    88   1
    91    15    89   1
    92    16    90   1
    93    16    91   1
    94    19    92   1
    95    20    93   1
    96    23    94   1
    97    23    95   1
    98    24    96   1
    99    25    97   1
   100    26    98   1
   101    29    99   1
   102    29   100   1
   103    30   101   1
   104    30   102   1
   105    33   103   1
   106    33   104   1
   107    34   105   1
   108    35   106   1
   109    38   107   1
   110    38   108   1
   111    41   109   1
   112    42   110   1
   113    43   111   1
   114    44   112   1
   115    45   113   1
   116    48   114   1
   117    48   115   1
   118    50   116   1
   119    51   117   1
   120    52   118   1
   121    53   119   1
   122    55   120   1
   123    56   121   1
   124    57   122   1
   125    60   123   1
   126    60   124   1
   127    64   125   1
   128    65   126   1
   129    69   127   1
   130    69   128   1
   131    70   129   1
@<TRIPOS>SUBSTRUCTURE
     1  DVA      2

