@<TRIPOS>MOLECULE
1zea_ligand_072
   129   131
SMALL
GAST_HUCK
****
This file was generated by PARSER (from files_GN.cpp)

@<TRIPOS>ATOM
      1 N          50.9572   49.9520   77.0528 N.4         1 DVA       0.2381
      2 CA         51.8290   51.0248   77.5635 C.3         1 DVA       0.0675
      3 CB         53.0261   51.3375   76.5923 C.3         1 DVA       0.0139
      4 CG1        53.8597   50.0949   76.1555 C.3         1 DVA      -0.0553
      5 CG2        52.5503   52.1119   75.3289 C.3         1 DVA      -0.0553
      6 C          52.2426   50.7067   78.9377 C.2         1 DVA       0.2295
      7 O          52.8475   49.6488   79.0749 O.2         1 DVA      -0.3905
      8 N          52.0084   51.4553   80.0349 N.am        1 DVA      -0.2471
      9 CA         51.2619   52.6890   80.0908 C.3         1 DVA       0.1339
     10 CB         51.6066   53.3111   81.4660 C.3         1 DVA      -0.0104
     11 CG         52.0027   52.1129   82.3324 C.3         1 DVA      -0.0281
     12 CD         52.5589   51.1032   81.3169 C.3         1 DVA       0.0371
     13 C          49.8218   52.4922   79.9050 C.2         1 DVA       0.2039
     14 O          49.2480   53.2094   79.0966 O.2         1 DVA      -0.3944
     15 N          49.1581   51.5563   80.5812 N.am        1 DVA      -0.2664
     16 CA         47.7569   51.2489   80.4699 C.3         1 DVA       0.1201
     17 C          47.1020   51.2028   81.7636 C.2         1 DVA       0.2008
     18 O          47.3931   52.0489   82.6016 O.2         1 DVA      -0.3947
     19 N          46.1726   50.2823   82.0065 N.am        1 DVA      -0.2618
     20 CA         45.5176   50.0434   83.2632 C.3         1 DVA       0.1539
     21 C          44.3013   50.8488   83.3772 C.2         1 DVA       0.2062
     22 O          43.2496   50.4421   82.9025 O.2         1 DVA      -0.3943
     23 CB         45.3019   48.5215   83.4853 C.3         1 DVA       0.0843
     24 OG         44.1035   48.0253   82.8989 O.3         1 DVA      -0.3903
     25 N          44.3863   52.0578   83.9096 N.am        1 DVA      -0.2635
     26 CA         43.3403   53.0040   84.1818 C.3         1 DVA       0.1330
     27 C          43.4526   53.4398   85.5769 C.2         1 DVA       0.2041
     28 O          44.5682   53.6650   86.0482 O.2         1 DVA      -0.3944
     29 CB         43.4928   54.2198   83.2121 C.3         1 DVA       0.0045
     30 CG         43.3462   53.9093   81.6906 C.3         1 DVA       0.0412
     31 CD         42.0098   53.9649   81.1179 C.2         1 DVA       0.1737
     32 OE1        41.0242   54.2472   81.7838 O.2         1 DVA      -0.3973
     33 NE2        41.8324   53.7725   79.8275 N.am        1 DVA      -0.3009
     34 N          42.3724   53.7587   86.2904 N.am        1 DVA      -0.2625
     35 CA         42.3640   54.2979   87.6374 C.3         1 DVA       0.1369
     36 C          43.2530   55.4589   87.8046 C.2         1 DVA       0.2055
     37 O          43.5799   56.1461   86.8461 O.2         1 DVA      -0.3942
     38 CB         40.9077   54.6408   88.1181 C.3         1 DVA       0.0145
     39 CG         40.2883   53.6417   89.0186 C.2         1 DVA      -0.0027
     40 ND1        40.9402   52.9722   89.9874 N.2         1 DVA      -0.3252
     41 CD2        38.9325   53.3491   89.1473 C.2         1 DVA       0.0291
     42 CE1        40.0229   52.2725   90.6772 C.2         1 DVA       0.0907
     43 NE2        38.8025   52.5105   90.1798 N.pl3       1 DVA      -0.2752
     44 N          43.7433   55.7096   89.0186 N.am        1 DVA      -0.2620
     45 CA         44.7628   56.6569   89.4000 C.3         1 DVA       0.1390
     46 C          46.0711   56.1723   88.9635 C.2         1 DVA       0.2058
     47 O          46.7347   56.8038   88.1503 O.2         1 DVA      -0.3942
     48 CB         44.4386   58.1386   89.0222 C.3         1 DVA       0.0163
     49 CG         43.3038   58.7138   89.7925 C.ar        1 DVA      -0.0493
     50 CD1        43.4685   59.0673   91.1531 C.ar        1 DVA      -0.0685
     51 CD2        42.0525   58.9583   89.1789 C.ar        1 DVA      -0.0685
     52 CE1        42.4151   59.6573   91.8747 C.ar        1 DVA      -0.0398
     53 CE2        40.9974   59.5407   89.9014 C.ar        1 DVA      -0.0398
     54 CZ         41.1767   59.9025   91.2533 C.ar        1 DVA       0.0805
     55 OH         40.1893   60.4968   91.9706 O.3         1 DVA      -0.3376
     56 N          46.5166   55.0278   89.4765 N.am        1 DVA      -0.2620
     57 CA         47.7779   54.3537   89.3043 C.3         1 DVA       0.1423
     58 C          48.0532   53.8506   87.9601 C.2         1 DVA       0.2051
     59 O          47.4375   54.2952   87.0020 O.2         1 DVA      -0.3943
     60 CB         48.9746   55.1287   89.9428 C.3         1 DVA       0.0406
     61 CG         49.4047   56.3509   89.2373 C.2         1 DVA       0.0393
     62 OD1        49.9372   56.2774   87.9949 O.co2       1 DVA      -0.5688
     63 OD2        49.3591   57.5553   89.8509 O.co2       1 DVA      -0.5688
     64 N          48.9561   52.8818   87.8102 N.am        1 DVA      -0.2671
     65 CA         49.4049   52.2148   86.6170 C.3         1 DVA       0.1173
     66 C          48.3251   51.4500   85.9452 C.2         1 DVA       0.0623
     67 O          47.2440   52.0670   85.4222 O.co2       1 DVA      -0.5665
     68 OXT        48.3807   50.0989   85.8615 O.co2       1 DVA      -0.5665
     69 CB         50.1800   53.1437   85.6473 C.3         1 DVA       0.0789
     70 OG         49.3480   54.1098   85.0118 O.3         1 DVA      -0.3910
     71 H1         50.6065   50.2022   76.1260 H           1 DVA       0.2015
     72 H2         50.1716   49.7999   77.6913 H           1 DVA       0.2015
     73 H3         51.4812   49.0821   76.9781 H           1 DVA       0.2015
     74 H4         51.1933   51.9086   77.5736 H           1 DVA       0.1101
     75 H5         53.7116   52.0092   77.1201 H           1 DVA       0.0376
     76 H6         54.6738   50.3960   75.4919 H           1 DVA       0.0236
     77 H7         53.2356   49.3732   75.6246 H           1 DVA       0.0236
     78 H8         54.3117   49.6007   77.0152 H           1 DVA       0.0236
     79 H9         52.0421   53.0341   75.6161 H           1 DVA       0.0236
     80 H10        51.8632   51.5043   74.7374 H           1 DVA       0.0236
     81 H11        53.4014   52.3832   74.7011 H           1 DVA       0.0236
     82 H12        51.6505   53.3784   79.3314 H           1 DVA       0.0802
     83 H13        50.7830   53.8774   81.9108 H           1 DVA       0.0313
     84 H14        52.4684   53.9792   81.3666 H           1 DVA       0.0313
     85 H15        51.1187   51.7014   82.8277 H           1 DVA       0.0287
     86 H16        52.7456   52.3827   83.0871 H           1 DVA       0.0287
     87 H17        53.6512   51.1699   81.2789 H           1 DVA       0.0524
     88 H18        52.2696   50.0888   81.6111 H           1 DVA       0.0524
     89 H19        49.6670   51.0121   81.2061 H           1 DVA       0.1881
     90 H20        47.6836   50.2805   79.9709 H           1 DVA       0.0763
     91 H21        47.2185   51.9752   79.8556 H           1 DVA       0.0763
     92 H22        45.9772   49.6646   81.2837 H           1 DVA       0.1884
     93 H23        46.2072   50.3241   84.0658 H           1 DVA       0.0823
     94 H24        45.2688   48.2990   84.5560 H           1 DVA       0.0606
     95 H25        46.1437   47.9774   83.0573 H           1 DVA       0.0606
     96 H26        44.2985   47.9443   81.9438 H           1 DVA       0.2097
     97 H27        45.2781   52.3486   84.1537 H           1 DVA       0.1883
     98 H28        42.3546   52.5545   84.0287 H           1 DVA       0.0801
     99 H29        44.4869   54.6525   83.3685 H           1 DVA       0.0337
    100 H30        42.7608   54.9882   83.4805 H           1 DVA       0.0337
    101 H31        43.7722   52.9225   81.4836 H           1 DVA       0.0504
    102 H32        43.9537   54.6382   81.1466 H           1 DVA       0.0504
    103 H33        40.9442   53.8433   79.4447 H           1 DVA       0.1814
    104 H34        42.5890   53.5754   79.2516 H           1 DVA       0.1814
    105 H35        41.5121   53.6004   85.8719 H           1 DVA       0.1885
    106 H36        42.7695   53.5001   88.2704 H           1 DVA       0.0817
    107 H37        40.2646   54.7946   87.2483 H           1 DVA       0.0420
    108 H38        40.8871   55.5832   88.6762 H           1 DVA       0.0420
    109 H39        38.1657   53.7443   88.6024 H           1 DVA       0.0729
    110 H40        40.2189   51.6769   91.4839 H           1 DVA       0.1199
    111 H41        37.9668   52.1654   90.5326 H           1 DVA       0.2361
    112 H42        43.4275   55.1333   89.7332 H           1 DVA       0.1885
    113 H43        44.7919   56.6286   90.4957 H           1 DVA       0.0821
    114 H44        44.2445   58.2012   87.9499 H           1 DVA       0.0453
    115 H45        45.3210   58.7577   89.2063 H           1 DVA       0.0453
    116 H46        44.3631   58.9087   91.6265 H           1 DVA       0.0530
    117 H47        41.9038   58.7102   88.1986 H           1 DVA       0.0530
    118 H48        42.5531   59.9175   92.8557 H           1 DVA       0.0525
    119 H49        40.1015   59.7139   89.4380 H           1 DVA       0.0525
    120 H50        39.3673   60.4068   91.4449 H           1 DVA       0.2458
    121 H51        45.9068   54.5826   90.0892 H           1 DVA       0.1884
    122 H52        47.6609   53.4558   89.9231 H           1 DVA       0.0819
    123 H53        49.8466   54.4684   90.0067 H           1 DVA       0.0478
    124 H54        48.7055   55.3918   90.9716 H           1 DVA       0.0478
    125 H55        49.3793   52.5769   88.6313 H           1 DVA       0.1876
    126 H56        50.1358   51.4810   86.9669 H           1 DVA       0.0749
    127 H57        50.6572   52.5392   84.8759 H           1 DVA       0.0599
    128 H58        50.9651   53.6665   86.1964 H           1 DVA       0.0599
    129 H59        49.9504   54.6230   84.4249 H           1 DVA       0.2096
@<TRIPOS>BOND
     1     1     2   1
     2     2     3   1
     3     2     6   1
     4     3     4   1
     5     3     5   1
     6     6     7   2
     7     6     8  am
     8     8     9   1
     9     8    12   1
    10     9    10   1
    11     9    13   1
    12    10    11   1
    13    11    12   1
    14    13    14   2
    15    13    15  am
    16    15    16   1
    17    16    17   1
    18    17    18   2
    19    17    19  am
    20    19    20   1
    21    20    21   1
    22    20    23   1
    23    21    22   2
    24    21    25  am
    25    23    24   1
    26    25    26   1
    27    26    27   1
    28    26    29   1
    29    27    28   2
    30    27    34  am
    31    29    30   1
    32    30    31   1
    33    31    32   2
    34    31    33  am
    35    34    35   1
    36    35    36   1
    37    35    38   1
    38    36    37   2
    39    36    44  am
    40    38    39   1
    41    39    40   1
    42    39    41   2
    43    40    42   2
    44    41    43   1
    45    42    43   1
    46    44    45   1
    47    45    46   1
    48    45    48   1
    49    46    47   2
    50    46    56  am
    51    48    49   1
    52    49    50  ar
    53    49    51  ar
    54    50    52  ar
    55    51    53  ar
    56    52    54  ar
    57    53    54  ar
    58    54    55   1
    59    56    57   1
    60    57    58   1
    61    57    60   1
    62    58    59   2
    63    58    64  am
    64    60    61   1
    65    61    62  ar
    66    61    63  ar
    67    64    65   1
    68    65    66   1
    69    65    69   1
    70    66    67  ar
    71    66    68  ar
    72    69    70   1
    73     1    71   1
    74     1    72   1
    75     1    73   1
    76     2    74   1
    77     3    75   1
    78     4    76   1
    79     4    77   1
    80     4    78   1
    81     5    79   1
    82     5    80   1
    83     5    81   1
    84     9    82   1
    85    10    83   1
    86    10    84   1
    87    11    85   1
    88    11    86   1
    89    12    87   1
    90    12    88   1
    91    15    89   1
    92    16    90   1
    93    16    91   1
    94    19    92   1
    95    20    93   1
    96    23    94   1
    97    23    95   1
    98    24    96   1
    99    25    97   1
   100    26    98   1
   101    29    99   1
   102    29   100   1
   103    30   101   1
   104    30   102   1
   105    33   103   1
   106    33   104   1
   107    34   105   1
   108    35   106   1
   109    38   107   1
   110    38   108   1
   111    41   109   1
   112    42   110   1
   113    43   111   1
   114    44   112   1
   115    45   113   1
   116    48   114   1
   117    48   115   1
   118    50   116   1
   119    51   117   1
   120    52   118   1
   121    53   119   1
   122    55   120   1
   123    56   121   1
   124    57   122   1
   125    60   123   1
   126    60   124   1
   127    64   125   1
   128    65   126   1
   129    69   127   1
   130    69   128   1
   131    70   129   1
@<TRIPOS>SUBSTRUCTURE
     1  DVA      2

