@<TRIPOS>MOLECULE
1zea_ligand_048
   129   131
SMALL
GAST_HUCK
****
This file was generated by PARSER (from files_GN.cpp)

@<TRIPOS>ATOM
      1 N          55.1317   51.7581   81.1123 N.4         1 DVA       0.2381
      2 CA         54.8035   52.9073   80.2496 C.3         1 DVA       0.0675
      3 CB         54.2509   54.1478   81.0483 C.3         1 DVA       0.0139
      4 CG1        55.2023   54.5879   82.2010 C.3         1 DVA      -0.0553
      5 CG2        53.9549   55.3690   80.1285 C.3         1 DVA      -0.0553
      6 C          53.9884   52.5083   79.0837 C.2         1 DVA       0.2295
      7 O          54.3566   53.0175   78.0265 O.2         1 DVA      -0.3905
      8 N          52.9408   51.6515   79.0318 N.am        1 DVA      -0.2471
      9 CA         52.2836   50.9916   80.1393 C.3         1 DVA       0.1339
     10 CB         51.1653   50.1138   79.5145 C.3         1 DVA      -0.0104
     11 CG         51.5920   49.9504   78.0553 C.3         1 DVA      -0.0281
     12 CD         52.3635   51.2473   77.7743 C.3         1 DVA       0.0371
     13 C          51.7092   51.8976   81.1254 C.2         1 DVA       0.2039
     14 O          51.0371   52.8412   80.7233 O.2         1 DVA      -0.3944
     15 N          51.8129   51.6266   82.4199 N.am        1 DVA      -0.2664
     16 CA         51.2397   52.3742   83.5037 C.3         1 DVA       0.1201
     17 C          49.8476   52.7549   83.3243 C.2         1 DVA       0.2008
     18 O          49.5005   53.8861   83.6405 O.2         1 DVA      -0.3947
     19 N          49.0060   51.9006   82.7522 N.am        1 DVA      -0.2618
     20 CA         47.6389   52.0744   82.3423 C.3         1 DVA       0.1539
     21 C          46.7271   52.2618   83.4672 C.2         1 DVA       0.2062
     22 O          46.6932   53.3455   84.0357 O.2         1 DVA      -0.3943
     23 CB         47.4786   53.1269   81.2086 C.3         1 DVA       0.0843
     24 OG         48.0413   54.4020   81.4991 O.3         1 DVA      -0.3903
     25 N          45.9355   51.2643   83.8490 N.am        1 DVA      -0.2635
     26 CA         45.0061   51.2569   84.9414 C.3         1 DVA       0.1330
     27 C          43.6480   51.4265   84.4292 C.2         1 DVA       0.2041
     28 O          43.2277   50.7364   83.5068 O.2         1 DVA      -0.3944
     29 CB         45.1892   50.0065   85.8575 C.3         1 DVA       0.0045
     30 CG         45.2438   48.5976   85.2052 C.3         1 DVA       0.0412
     31 CD         44.0619   48.1856   84.4747 C.2         1 DVA       0.1737
     32 OE1        44.1635   47.5596   83.4288 O.2         1 DVA      -0.3973
     33 NE2        42.8492   48.4322   84.9188 N.am        1 DVA      -0.3009
     34 N          42.8950   52.3688   84.9740 N.am        1 DVA      -0.2625
     35 CA         41.5238   52.6919   84.7060 C.3         1 DVA       0.1369
     36 C          41.0895   53.5551   85.8042 C.2         1 DVA       0.2055
     37 O          40.6640   54.6844   85.5991 O.2         1 DVA      -0.3942
     38 CB         41.2795   53.2448   83.2588 C.3         1 DVA       0.0145
     39 CG         42.4479   53.8106   82.5448 C.2         1 DVA      -0.0027
     40 ND1        42.6677   53.6587   81.2246 N.2         1 DVA      -0.3252
     41 CD2        43.5671   54.4503   83.0800 C.2         1 DVA       0.0291
     42 CE1        43.8722   54.1853   80.9516 C.2         1 DVA       0.0907
     43 NE2        44.4273   54.6504   82.0769 N.pl3       1 DVA      -0.2752
     44 N          41.1602   53.0749   87.0437 N.am        1 DVA      -0.2620
     45 CA         40.7667   53.7229   88.2708 C.3         1 DVA       0.1390
     46 C          40.7615   52.7623   89.3760 C.2         1 DVA       0.2058
     47 O          41.5544   51.8292   89.3742 O.2         1 DVA      -0.3942
     48 CB         41.6820   54.9468   88.6084 C.3         1 DVA       0.0163
     49 CG         41.0785   55.8809   89.5980 C.ar        1 DVA      -0.0493
     50 CD1        40.1225   56.8399   89.1801 C.ar        1 DVA      -0.0685
     51 CD2        41.4318   55.8318   90.9679 C.ar        1 DVA      -0.0685
     52 CE1        39.5431   57.7269   90.1052 C.ar        1 DVA      -0.0398
     53 CE2        40.8430   56.7109   91.8942 C.ar        1 DVA      -0.0398
     54 CZ         39.9029   57.6655   91.4664 C.ar        1 DVA       0.0805
     55 OH         39.3680   58.5221   92.3752 O.3         1 DVA      -0.3376
     56 N          39.9633   52.9572   90.4245 N.am        1 DVA      -0.2620
     57 CA         39.7958   52.0793   91.5527 C.3         1 DVA       0.1423
     58 C          40.6088   52.5701   92.6613 C.2         1 DVA       0.2051
     59 O          40.1161   53.2545   93.5509 O.2         1 DVA      -0.3943
     60 CB         38.2679   51.9505   91.8241 C.3         1 DVA       0.0406
     61 CG         37.9118   50.7091   92.5368 C.2         1 DVA       0.0393
     62 OD1        37.8085   50.6867   93.8836 O.co2       1 DVA      -0.5688
     63 OD2        37.7063   49.5597   91.8494 O.co2       1 DVA      -0.5688
     64 N          41.8792   52.1956   92.7259 N.am        1 DVA      -0.2671
     65 CA         42.8019   52.4467   93.7964 C.3         1 DVA       0.1173
     66 C          42.8163   51.3280   94.7643 C.2         1 DVA       0.0623
     67 O          43.6740   50.2955   94.6190 O.co2       1 DVA      -0.5665
     68 OXT        41.9284   51.2841   95.7829 O.co2       1 DVA      -0.5665
     69 CB         44.2257   52.7033   93.2344 C.3         1 DVA       0.0789
     70 OG         44.7735   51.5737   92.5565 O.3         1 DVA      -0.3910
     71 H1         55.9358   51.9960   81.7016 H           1 DVA       0.2015
     72 H2         55.3726   50.9493   80.5323 H           1 DVA       0.2015
     73 H3         54.3376   51.5259   81.7150 H           1 DVA       0.2015
     74 H4         55.7911   53.2096   79.8760 H           1 DVA       0.1101
     75 H5         53.3078   53.8739   81.5202 H           1 DVA       0.0376
     76 H6         54.7974   55.4610   82.7210 H           1 DVA       0.0236
     77 H7         56.1915   54.8415   81.8090 H           1 DVA       0.0236
     78 H8         55.3078   53.7881   82.9362 H           1 DVA       0.0236
     79 H9         53.2064   55.1149   79.3720 H           1 DVA       0.0236
     80 H10        54.8680   55.7012   79.6237 H           1 DVA       0.0236
     81 H11        53.5569   56.2029   80.7161 H           1 DVA       0.0236
     82 H12        52.9969   50.3088   80.6062 H           1 DVA       0.0802
     83 H13        50.1814   50.5975   79.5369 H           1 DVA       0.0313
     84 H14        51.0869   49.1439   80.0155 H           1 DVA       0.0313
     85 H15        50.7351   49.8234   77.3863 H           1 DVA       0.0287
     86 H16        52.2571   49.0863   77.9586 H           1 DVA       0.0287
     87 H17        53.1178   51.0431   77.0091 H           1 DVA       0.0524
     88 H18        51.6858   52.0253   77.4124 H           1 DVA       0.0524
     89 H19        52.3274   50.8387   82.6715 H           1 DVA       0.1881
     90 H20        51.8573   53.2605   83.6692 H           1 DVA       0.0763
     91 H21        51.3035   51.7559   84.4021 H           1 DVA       0.0763
     92 H22        49.3896   51.0439   82.5104 H           1 DVA       0.1884
     93 H23        47.3885   51.1192   81.8656 H           1 DVA       0.0823
     94 H24        46.4158   53.2684   80.9881 H           1 DVA       0.0606
     95 H25        47.9625   52.7513   80.3024 H           1 DVA       0.0606
     96 H26        47.5980   54.7037   82.3207 H           1 DVA       0.2097
     97 H27        45.9810   50.4456   83.3283 H           1 DVA       0.1883
     98 H28        45.2238   52.1064   85.6045 H           1 DVA       0.0801
     99 H29        44.4108   50.0141   86.6256 H           1 DVA       0.0337
    100 H30        46.1424   50.1353   86.3859 H           1 DVA       0.0337
    101 H31        45.3906   47.8747   86.0083 H           1 DVA       0.0504
    102 H32        46.1258   48.5479   84.5586 H           1 DVA       0.0504
    103 H33        42.0807   48.1378   84.4042 H           1 DVA       0.1814
    104 H34        42.7146   48.9694   85.7155 H           1 DVA       0.1814
    105 H35        43.3233   52.8869   85.6742 H           1 DVA       0.1885
    106 H36        40.9331   51.7719   84.7998 H           1 DVA       0.0817
    107 H37        40.4764   53.9857   83.2525 H           1 DVA       0.0420
    108 H38        40.9198   52.4125   82.6481 H           1 DVA       0.0420
    109 H39        43.7306   54.6910   84.0604 H           1 DVA       0.0729
    110 H40        44.3002   54.2121   80.0270 H           1 DVA       0.1199
    111 H41        45.3051   55.0581   82.1498 H           1 DVA       0.2361
    112 H42        41.4734   52.1544   87.1187 H           1 DVA       0.1885
    113 H43        39.7360   54.0597   88.1228 H           1 DVA       0.0821
    114 H44        41.8933   55.5218   87.7034 H           1 DVA       0.0453
    115 H45        42.6505   54.5750   88.9606 H           1 DVA       0.0453
    116 H46        39.8479   56.9006   88.1971 H           1 DVA       0.0530
    117 H47        42.1138   55.1496   91.3009 H           1 DVA       0.0530
    118 H48        38.8555   58.4125   89.7834 H           1 DVA       0.0525
    119 H49        41.0983   56.6529   92.8825 H           1 DVA       0.0525
    120 H50        38.9333   59.2371   91.8636 H           1 DVA       0.2458
    121 H51        39.4125   53.7594   90.4234 H           1 DVA       0.1884
    122 H52        40.1487   51.0723   91.3133 H           1 DVA       0.0819
    123 H53        37.7344   51.9546   90.8710 H           1 DVA       0.0478
    124 H54        37.9204   52.8136   92.3977 H           1 DVA       0.0478
    125 H55        42.2134   51.6741   91.9771 H           1 DVA       0.1876
    126 H56        42.4910   53.3614   94.3094 H           1 DVA       0.0749
    127 H57        44.9029   52.9677   94.0486 H           1 DVA       0.0599
    128 H58        44.2022   53.5430   92.5358 H           1 DVA       0.0599
    129 H59        44.4377   51.6323   91.6369 H           1 DVA       0.2096
@<TRIPOS>BOND
     1     1     2   1
     2     2     3   1
     3     2     6   1
     4     3     4   1
     5     3     5   1
     6     6     7   2
     7     6     8  am
     8     8     9   1
     9     8    12   1
    10     9    10   1
    11     9    13   1
    12    10    11   1
    13    11    12   1
    14    13    14   2
    15    13    15  am
    16    15    16   1
    17    16    17   1
    18    17    18   2
    19    17    19  am
    20    19    20   1
    21    20    21   1
    22    20    23   1
    23    21    22   2
    24    21    25  am
    25    23    24   1
    26    25    26   1
    27    26    27   1
    28    26    29   1
    29    27    28   2
    30    27    34  am
    31    29    30   1
    32    30    31   1
    33    31    32   2
    34    31    33  am
    35    34    35   1
    36    35    36   1
    37    35    38   1
    38    36    37   2
    39    36    44  am
    40    38    39   1
    41    39    40   1
    42    39    41   2
    43    40    42   2
    44    41    43   1
    45    42    43   1
    46    44    45   1
    47    45    46   1
    48    45    48   1
    49    46    47   2
    50    46    56  am
    51    48    49   1
    52    49    50  ar
    53    49    51  ar
    54    50    52  ar
    55    51    53  ar
    56    52    54  ar
    57    53    54  ar
    58    54    55   1
    59    56    57   1
    60    57    58   1
    61    57    60   1
    62    58    59   2
    63    58    64  am
    64    60    61   1
    65    61    62  ar
    66    61    63  ar
    67    64    65   1
    68    65    66   1
    69    65    69   1
    70    66    67  ar
    71    66    68  ar
    72    69    70   1
    73     1    71   1
    74     1    72   1
    75     1    73   1
    76     2    74   1
    77     3    75   1
    78     4    76   1
    79     4    77   1
    80     4    78   1
    81     5    79   1
    82     5    80   1
    83     5    81   1
    84     9    82   1
    85    10    83   1
    86    10    84   1
    87    11    85   1
    88    11    86   1
    89    12    87   1
    90    12    88   1
    91    15    89   1
    92    16    90   1
    93    16    91   1
    94    19    92   1
    95    20    93   1
    96    23    94   1
    97    23    95   1
    98    24    96   1
    99    25    97   1
   100    26    98   1
   101    29    99   1
   102    29   100   1
   103    30   101   1
   104    30   102   1
   105    33   103   1
   106    33   104   1
   107    34   105   1
   108    35   106   1
   109    38   107   1
   110    38   108   1
   111    41   109   1
   112    42   110   1
   113    43   111   1
   114    44   112   1
   115    45   113   1
   116    48   114   1
   117    48   115   1
   118    50   116   1
   119    51   117   1
   120    52   118   1
   121    53   119   1
   122    55   120   1
   123    56   121   1
   124    57   122   1
   125    60   123   1
   126    60   124   1
   127    64   125   1
   128    65   126   1
   129    69   127   1
   130    69   128   1
   131    70   129   1
@<TRIPOS>SUBSTRUCTURE
     1  DVA      2

