@<TRIPOS>MOLECULE
1zea_ligand_060
   129   131
SMALL
GAST_HUCK
****
This file was generated by PARSER (from files_GN.cpp)

@<TRIPOS>ATOM
      1 N          42.4244   53.1790   95.3495 N.4         1 DVA       0.2381
      2 CA         42.6883   54.4126   94.5862 C.3         1 DVA       0.0675
      3 CB         44.1120   54.3665   93.9215 C.3         1 DVA       0.0139
      4 CG1        44.2828   55.4550   92.8255 C.3         1 DVA      -0.0553
      5 CG2        45.3158   54.3916   94.9072 C.3         1 DVA      -0.0553
      6 C          42.4149   55.5742   95.4439 C.2         1 DVA       0.2295
      7 O          43.1827   55.7232   96.3881 O.2         1 DVA      -0.3905
      8 N          41.4014   56.4505   95.3013 N.am        1 DVA      -0.2471
      9 CA         40.2785   56.3297   94.3985 C.3         1 DVA       0.1339
     10 CB         39.3877   57.5691   94.6669 C.3         1 DVA      -0.0104
     11 CG         40.3477   58.5761   95.3038 C.3         1 DVA      -0.0281
     12 CD         41.3535   57.6809   96.0440 C.3         1 DVA       0.0371
     13 C          39.4812   55.1125   94.5353 C.2         1 DVA       0.2039
     14 O          39.6962   54.3491   95.4726 O.2         1 DVA      -0.3944
     15 N          38.5407   54.8619   93.6383 N.am        1 DVA      -0.2664
     16 CA         37.7532   53.6755   93.4963 C.3         1 DVA       0.1201
     17 C          38.3054   52.7944   92.4833 C.2         1 DVA       0.2008
     18 O          38.1920   51.5855   92.6282 O.2         1 DVA      -0.3947
     19 N          38.8786   53.3100   91.4012 N.am        1 DVA      -0.2618
     20 CA         39.5038   52.6215   90.3125 C.3         1 DVA       0.1539
     21 C          39.8632   53.6426   89.3247 C.2         1 DVA       0.2062
     22 O          38.9847   54.0285   88.5662 O.2         1 DVA      -0.3943
     23 CB         40.6799   51.7186   90.7816 C.3         1 DVA       0.0843
     24 OG         41.4534   51.2539   89.6805 O.3         1 DVA      -0.3903
     25 N          41.0660   54.2281   89.3121 N.am        1 DVA      -0.2635
     26 CA         41.5351   55.2982   88.4633 C.3         1 DVA       0.1330
     27 C          41.4691   54.9126   87.0546 C.2         1 DVA       0.2041
     28 O          40.3973   54.9845   86.4671 O.2         1 DVA      -0.3944
     29 CB         40.8381   56.6546   88.8224 C.3         1 DVA       0.0045
     30 CG         41.2175   57.8882   87.9309 C.3         1 DVA       0.0412
     31 CD         40.0571   58.6681   87.5310 C.2         1 DVA       0.1737
     32 OE1        39.6571   58.6477   86.3741 O.2         1 DVA      -0.3973
     33 NE2        39.3474   59.3368   88.4139 N.am        1 DVA      -0.3009
     34 N          42.5681   54.5504   86.3959 N.am        1 DVA      -0.2625
     35 CA         42.6451   54.2972   84.9726 C.3         1 DVA       0.1369
     36 C          44.0100   54.0346   84.5251 C.2         1 DVA       0.2055
     37 O          44.7946   53.4705   85.2773 O.2         1 DVA      -0.3942
     38 CB         41.6712   53.1499   84.5227 C.3         1 DVA       0.0145
     39 CG         40.7238   53.5808   83.4738 C.2         1 DVA      -0.0027
     40 ND1        40.9904   53.6152   82.1561 N.2         1 DVA      -0.3252
     41 CD2        39.4297   54.0651   83.6586 C.2         1 DVA       0.0291
     42 CE1        39.8947   54.0957   81.5442 C.2         1 DVA       0.0907
     43 NE2        38.9491   54.3765   82.4517 N.pl3       1 DVA      -0.2752
     44 N          44.3568   54.3492   83.2775 N.am        1 DVA      -0.2620
     45 CA         45.5990   54.0877   82.5979 C.3         1 DVA       0.1390
     46 C          46.6603   54.9579   83.1019 C.2         1 DVA       0.2058
     47 O          47.3454   54.5765   84.0437 O.2         1 DVA      -0.3942
     48 CB         45.9366   52.5613   82.5821 C.3         1 DVA       0.0163
     49 CG         47.0411   52.1920   81.6502 C.ar        1 DVA      -0.0493
     50 CD1        48.3606   51.9986   82.1251 C.ar        1 DVA      -0.0685
     51 CD2        46.7894   52.0126   80.2683 C.ar        1 DVA      -0.0685
     52 CE1        49.4009   51.6553   81.2434 C.ar        1 DVA      -0.0398
     53 CE2        47.8273   51.6538   79.3857 C.ar        1 DVA      -0.0398
     54 CZ         49.1387   51.4906   79.8703 C.ar        1 DVA       0.0805
     55 OH         50.1539   51.1830   79.0269 O.3         1 DVA      -0.3376
     56 N          46.8093   56.1810   82.6044 N.am        1 DVA      -0.2620
     57 CA         47.7853   57.1659   82.9939 C.3         1 DVA       0.1423
     58 C          48.6605   57.4081   81.8526 C.2         1 DVA       0.2051
     59 O          49.8541   57.1480   81.9436 O.2         1 DVA      -0.3943
     60 CB         47.0945   58.4758   83.4869 C.3         1 DVA       0.0406
     61 CG         46.2679   58.3022   84.6977 C.2         1 DVA       0.0393
     62 OD1        46.8190   57.8307   85.8385 O.co2       1 DVA      -0.5688
     63 OD2        45.0820   58.9440   84.7920 O.co2       1 DVA      -0.5688
     64 N          48.1593   57.9173   80.7353 N.am        1 DVA      -0.2671
     65 CA         48.8789   58.2802   79.5507 C.3         1 DVA       0.1173
     66 C          49.2603   57.0913   78.7586 C.2         1 DVA       0.0623
     67 O          48.3282   56.2238   78.3041 O.co2       1 DVA      -0.5665
     68 OXT        50.5608   56.8205   78.5126 O.co2       1 DVA      -0.5665
     69 CB         48.0153   59.2747   78.7260 C.3         1 DVA       0.0789
     70 OG         46.8738   58.6361   78.1596 O.3         1 DVA      -0.3910
     71 H1         42.6130   52.3623   94.7631 H           1 DVA       0.2015
     72 H2         41.4446   53.1580   95.6424 H           1 DVA       0.2015
     73 H3         43.0205   53.1436   96.1779 H           1 DVA       0.2015
     74 H4         41.9806   54.3840   93.7571 H           1 DVA       0.1101
     75 H5         44.1797   53.4051   93.4013 H           1 DVA       0.0376
     76 H6         44.2675   56.4544   93.2659 H           1 DVA       0.0236
     77 H7         43.4804   55.3851   92.0887 H           1 DVA       0.0236
     78 H8         45.2331   55.3212   92.3013 H           1 DVA       0.0236
     79 H9         45.4345   55.3759   95.3619 H           1 DVA       0.0236
     80 H10        46.2392   54.1542   94.3757 H           1 DVA       0.0236
     81 H11        45.1878   53.6526   95.6977 H           1 DVA       0.0236
     82 H12        40.6739   56.4079   93.3787 H           1 DVA       0.0802
     83 H13        38.5819   57.3553   95.3786 H           1 DVA       0.0313
     84 H14        38.9466   57.9604   93.7456 H           1 DVA       0.0313
     85 H15        39.8340   59.2641   95.9812 H           1 DVA       0.0287
     86 H16        40.8553   59.1514   94.5228 H           1 DVA       0.0287
     87 H17        42.3243   58.1857   96.0709 H           1 DVA       0.0524
     88 H18        41.0203   57.4852   97.0671 H           1 DVA       0.0524
     89 H19        38.4298   55.5195   92.9346 H           1 DVA       0.1881
     90 H20        36.7561   53.9860   93.1815 H           1 DVA       0.0763
     91 H21        37.6463   53.1455   94.4486 H           1 DVA       0.0763
     92 H22        38.8519   54.2749   91.3278 H           1 DVA       0.1884
     93 H23        38.7519   51.9721   89.8529 H           1 DVA       0.0823
     94 H24        40.2900   50.8467   91.3092 H           1 DVA       0.0606
     95 H25        41.3269   52.2662   91.4645 H           1 DVA       0.0606
     96 H26        42.2171   50.7954   90.0848 H           1 DVA       0.2097
     97 H27        41.7150   53.9002   89.9578 H           1 DVA       0.1883
     98 H28        42.5939   55.4380   88.7223 H           1 DVA       0.0801
     99 H29        41.0851   56.9041   89.8623 H           1 DVA       0.0337
    100 H30        39.7576   56.4900   88.7996 H           1 DVA       0.0337
    101 H31        41.7508   57.5689   87.0308 H           1 DVA       0.0504
    102 H32        41.9084   58.5433   88.4739 H           1 DVA       0.0504
    103 H33        38.5234   59.7766   88.1437 H           1 DVA       0.1814
    104 H34        39.6202   59.3623   89.3461 H           1 DVA       0.1814
    105 H35        43.3965   54.4962   86.9069 H           1 DVA       0.1885
    106 H36        42.3608   55.2433   84.4953 H           1 DVA       0.0817
    107 H37        41.0953   52.7820   85.3805 H           1 DVA       0.0420
    108 H38        42.2078   52.2778   84.1428 H           1 DVA       0.0420
    109 H39        38.9346   54.1788   84.5455 H           1 DVA       0.0729
    110 H40        39.7960   54.2197   80.5373 H           1 DVA       0.1199
    111 H41        38.0715   54.7489   82.2693 H           1 DVA       0.2361
    112 H42        43.6743   54.7942   82.7473 H           1 DVA       0.1885
    113 H43        45.4117   54.3627   81.5511 H           1 DVA       0.0821
    114 H44        45.0424   52.0046   82.2908 H           1 DVA       0.0453
    115 H45        46.1818   52.2246   83.5936 H           1 DVA       0.0453
    116 H46        48.5741   52.1164   83.1200 H           1 DVA       0.0530
    117 H47        45.8485   52.1364   79.8953 H           1 DVA       0.0530
    118 H48        50.3522   51.5311   81.5998 H           1 DVA       0.0525
    119 H49        47.6272   51.5131   78.3944 H           1 DVA       0.0525
    120 H50        50.1634   51.9036   78.3621 H           1 DVA       0.2458
    121 H51        46.2002   56.4401   81.8925 H           1 DVA       0.1884
    122 H52        48.3989   56.7974   83.8271 H           1 DVA       0.0819
    123 H53        46.4653   58.8850   82.6911 H           1 DVA       0.0478
    124 H54        47.8642   59.2172   83.7178 H           1 DVA       0.0478
    125 H55        47.2078   58.1095   80.7369 H           1 DVA       0.1876
    126 H56        49.7844   58.8221   79.8401 H           1 DVA       0.0749
    127 H57        48.6047   59.7247   77.9225 H           1 DVA       0.0599
    128 H58        47.6709   60.0772   79.3824 H           1 DVA       0.0599
    129 H59        46.1209   59.2423   78.3332 H           1 DVA       0.2096
@<TRIPOS>BOND
     1     1     2   1
     2     2     3   1
     3     2     6   1
     4     3     4   1
     5     3     5   1
     6     6     7   2
     7     6     8  am
     8     8     9   1
     9     8    12   1
    10     9    10   1
    11     9    13   1
    12    10    11   1
    13    11    12   1
    14    13    14   2
    15    13    15  am
    16    15    16   1
    17    16    17   1
    18    17    18   2
    19    17    19  am
    20    19    20   1
    21    20    21   1
    22    20    23   1
    23    21    22   2
    24    21    25  am
    25    23    24   1
    26    25    26   1
    27    26    27   1
    28    26    29   1
    29    27    28   2
    30    27    34  am
    31    29    30   1
    32    30    31   1
    33    31    32   2
    34    31    33  am
    35    34    35   1
    36    35    36   1
    37    35    38   1
    38    36    37   2
    39    36    44  am
    40    38    39   1
    41    39    40   1
    42    39    41   2
    43    40    42   2
    44    41    43   1
    45    42    43   1
    46    44    45   1
    47    45    46   1
    48    45    48   1
    49    46    47   2
    50    46    56  am
    51    48    49   1
    52    49    50  ar
    53    49    51  ar
    54    50    52  ar
    55    51    53  ar
    56    52    54  ar
    57    53    54  ar
    58    54    55   1
    59    56    57   1
    60    57    58   1
    61    57    60   1
    62    58    59   2
    63    58    64  am
    64    60    61   1
    65    61    62  ar
    66    61    63  ar
    67    64    65   1
    68    65    66   1
    69    65    69   1
    70    66    67  ar
    71    66    68  ar
    72    69    70   1
    73     1    71   1
    74     1    72   1
    75     1    73   1
    76     2    74   1
    77     3    75   1
    78     4    76   1
    79     4    77   1
    80     4    78   1
    81     5    79   1
    82     5    80   1
    83     5    81   1
    84     9    82   1
    85    10    83   1
    86    10    84   1
    87    11    85   1
    88    11    86   1
    89    12    87   1
    90    12    88   1
    91    15    89   1
    92    16    90   1
    93    16    91   1
    94    19    92   1
    95    20    93   1
    96    23    94   1
    97    23    95   1
    98    24    96   1
    99    25    97   1
   100    26    98   1
   101    29    99   1
   102    29   100   1
   103    30   101   1
   104    30   102   1
   105    33   103   1
   106    33   104   1
   107    34   105   1
   108    35   106   1
   109    38   107   1
   110    38   108   1
   111    41   109   1
   112    42   110   1
   113    43   111   1
   114    44   112   1
   115    45   113   1
   116    48   114   1
   117    48   115   1
   118    50   116   1
   119    51   117   1
   120    52   118   1
   121    53   119   1
   122    55   120   1
   123    56   121   1
   124    57   122   1
   125    60   123   1
   126    60   124   1
   127    64   125   1
   128    65   126   1
   129    69   127   1
   130    69   128   1
   131    70   129   1
@<TRIPOS>SUBSTRUCTURE
     1  DVA      2

