@<TRIPOS>MOLECULE
1zea_ligand_075
   129   131
SMALL
GAST_HUCK
****
This file was generated by PARSER (from files_GN.cpp)

@<TRIPOS>ATOM
      1 N          42.1489   53.0608   95.6704 N.4         1 DVA       0.2381
      2 CA         42.3108   54.2868   94.8655 C.3         1 DVA       0.0675
      3 CB         43.6491   54.2468   94.0471 C.3         1 DVA       0.0139
      4 CG1        43.6659   55.2964   92.9009 C.3         1 DVA      -0.0553
      5 CG2        44.9493   54.3530   94.8958 C.3         1 DVA      -0.0553
      6 C          42.1311   55.4632   95.7302 C.2         1 DVA       0.2295
      7 O          42.9635   55.5879   96.6223 O.2         1 DVA      -0.3905
      8 N          41.1562   56.3899   95.6324 N.am        1 DVA      -0.2471
      9 CA         40.0224   56.3469   94.7345 C.3         1 DVA       0.1339
     10 CB         39.2412   57.6645   94.9861 C.3         1 DVA      -0.0104
     11 CG         40.2802   58.5942   95.6168 C.3         1 DVA      -0.0281
     12 CD         41.2029   57.6214   96.3703 C.3         1 DVA       0.0371
     13 C          39.1184   55.2031   94.8709 C.2         1 DVA       0.2039
     14 O          39.1673   54.4892   95.8722 O.2         1 DVA      -0.3944
     15 N          38.2866   54.9450   93.8739 N.am        1 DVA      -0.2664
     16 CA         37.4129   53.8149   93.7295 C.3         1 DVA       0.1201
     17 C          37.9368   52.8723   92.7555 C.2         1 DVA       0.2008
     18 O          37.7344   51.6726   92.9353 O.2         1 DVA      -0.3947
     19 N          38.5828   53.3155   91.6914 N.am        1 DVA      -0.2618
     20 CA         39.1514   52.5624   90.6073 C.3         1 DVA       0.1539
     21 C          39.5625   53.5294   89.5869 C.2         1 DVA       0.2062
     22 O          38.7636   53.8075   88.6914 O.2         1 DVA      -0.3943
     23 CB         40.3092   51.6299   91.0774 C.3         1 DVA       0.0843
     24 OG         41.1824   51.2734   90.0088 O.3         1 DVA      -0.3903
     25 N          40.7067   54.2018   89.7022 N.am        1 DVA      -0.2635
     26 CA         41.2227   55.2464   88.8468 C.3         1 DVA       0.1330
     27 C          41.3950   54.7711   87.4682 C.2         1 DVA       0.2041
     28 O          40.4914   54.9166   86.6451 O.2         1 DVA      -0.3944
     29 CB         40.3883   56.5539   88.9975 C.3         1 DVA       0.0045
     30 CG         40.9571   57.7763   88.1960 C.3         1 DVA       0.0412
     31 CD         39.9111   58.6461   87.6951 C.2         1 DVA       0.1737
     32 OE1        39.5887   58.6129   86.5113 O.2         1 DVA      -0.3973
     33 NE2        39.1954   59.3874   88.5105 N.am        1 DVA      -0.3009
     34 N          42.5442   54.2058   87.1034 N.am        1 DVA      -0.2625
     35 CA         42.9216   53.8136   85.7610 C.3         1 DVA       0.1369
     36 C          44.3123   53.3381   85.6952 C.2         1 DVA       0.2055
     37 O          44.9588   53.0877   86.7159 O.2         1 DVA      -0.3942
     38 CB         41.8815   52.7992   85.1409 C.3         1 DVA       0.0145
     39 CG         41.1109   53.3606   83.9999 C.2         1 DVA      -0.0027
     40 ND1        41.5119   53.3578   82.7134 N.2         1 DVA      -0.3252
     41 CD2        39.8789   54.0158   84.0517 C.2         1 DVA       0.0291
     42 CE1        40.5685   53.9865   81.9945 C.2         1 DVA       0.0907
     43 NE2        39.5798   54.3978   82.8032 N.pl3       1 DVA      -0.2752
     44 N          44.8949   53.1864   84.5123 N.am        1 DVA      -0.2620
     45 CA         46.2458   52.7876   84.2130 C.3         1 DVA       0.1390
     46 C          47.1588   53.9251   84.2916 C.2         1 DVA       0.2058
     47 O          48.2312   53.8313   84.8856 O.2         1 DVA      -0.3942
     48 CB         46.7049   51.5310   85.0310 C.3         1 DVA       0.0163
     49 CG         45.8001   50.3558   84.9076 C.ar        1 DVA      -0.0493
     50 CD1        45.8060   49.5637   83.7367 C.ar        1 DVA      -0.0685
     51 CD2        44.9235   49.9955   85.9631 C.ar        1 DVA      -0.0685
     52 CE1        44.9544   48.4500   83.6127 C.ar        1 DVA      -0.0398
     53 CE2        44.0574   48.8959   85.8334 C.ar        1 DVA      -0.0398
     54 CZ         44.0607   48.1267   84.6517 C.ar        1 DVA       0.0805
     55 OH         43.2186   47.0801   84.4977 O.3         1 DVA      -0.3376
     56 N          46.8603   55.0421   83.6360 N.am        1 DVA      -0.2620
     57 CA         47.6437   56.2502   83.5409 C.3         1 DVA       0.1423
     58 C          48.2739   56.3098   82.2293 C.2         1 DVA       0.2051
     59 O          49.4948   56.3121   82.1605 O.2         1 DVA      -0.3943
     60 CB         46.7566   57.5019   83.7968 C.3         1 DVA       0.0406
     61 CG         46.2005   57.5526   85.1659 C.2         1 DVA       0.0393
     62 OD1        46.9677   57.9528   86.2000 O.co2       1 DVA      -0.5688
     63 OD2        44.8983   57.2618   85.3924 O.co2       1 DVA      -0.5688
     64 N          47.5222   56.3474   81.1297 N.am        1 DVA      -0.2671
     65 CA         47.9675   56.4054   79.7652 C.3         1 DVA       0.1173
     66 C          47.8474   55.0576   79.1753 C.2         1 DVA       0.0623
     67 O          46.7413   54.2943   79.3859 O.co2       1 DVA      -0.5665
     68 OXT        48.8439   54.5486   78.4114 O.co2       1 DVA      -0.5665
     69 CB         47.1562   57.4504   78.9521 C.3         1 DVA       0.0789
     70 OG         45.7943   57.5112   79.3727 O.3         1 DVA      -0.3910
     71 H1         42.2472   52.2391   95.0675 H           1 DVA       0.2015
     72 H2         41.2203   53.0513   96.1001 H           1 DVA       0.2015
     73 H3         42.8580   53.0264   96.4059 H           1 DVA       0.2015
     74 H4         41.5144   54.2305   94.1239 H           1 DVA       0.1101
     75 H5         43.6853   53.2661   93.5600 H           1 DVA       0.0376
     76 H6         43.6366   56.3104   93.3040 H           1 DVA       0.0236
     77 H7         42.8059   55.1578   92.2438 H           1 DVA       0.0236
     78 H8         44.5702   55.1892   92.2992 H           1 DVA       0.0236
     79 H9         45.0783   55.3627   95.2922 H           1 DVA       0.0236
     80 H10        45.8207   54.1133   94.2812 H           1 DVA       0.0236
     81 H11        44.9270   53.6505   95.7309 H           1 DVA       0.0236
     82 H12        40.4177   56.3677   93.7120 H           1 DVA       0.0802
     83 H13        38.4208   57.5267   95.7000 H           1 DVA       0.0313
     84 H14        38.8414   58.0849   94.0601 H           1 DVA       0.0313
     85 H15        39.8264   59.3288   96.2882 H           1 DVA       0.0287
     86 H16        40.8419   59.1146   94.8346 H           1 DVA       0.0287
     87 H17        42.2119   58.0518   96.4104 H           1 DVA       0.0524
     88 H18        40.8428   57.4535   97.3914 H           1 DVA       0.0524
     89 H19        38.3206   55.5437   93.1053 H           1 DVA       0.1881
     90 H20        36.4553   54.1933   93.3655 H           1 DVA       0.0763
     91 H21        37.2275   53.3239   94.6912 H           1 DVA       0.0763
     92 H22        38.6662   54.2783   91.6137 H           1 DVA       0.1884
     93 H23        38.3547   51.9280   90.1977 H           1 DVA       0.0823
     94 H24        39.9040   50.7062   91.4952 H           1 DVA       0.0606
     95 H25        40.8989   52.1215   91.8531 H           1 DVA       0.0606
     96 H26        41.5235   50.3859   90.2494 H           1 DVA       0.2097
     97 H27        41.2641   53.9636   90.4647 H           1 DVA       0.1883
     98 H28        42.2102   55.4888   89.2581 H           1 DVA       0.0801
     99 H29        40.3484   56.8396   90.0543 H           1 DVA       0.0337
    100 H30        39.3613   56.3430   88.6879 H           1 DVA       0.0337
    101 H31        41.5617   57.4370   87.3483 H           1 DVA       0.0504
    102 H32        41.6291   58.3608   88.8390 H           1 DVA       0.0504
    103 H33        38.4342   59.8793   88.1725 H           1 DVA       0.1814
    104 H34        39.3948   59.4027   89.4598 H           1 DVA       0.1814
    105 H35        43.2218   54.0912   87.7915 H           1 DVA       0.1885
    106 H36        42.9188   54.7368   85.1607 H           1 DVA       0.0817
    107 H37        41.1751   52.4597   85.9075 H           1 DVA       0.0420
    108 H38        42.3762   51.8926   84.7753 H           1 DVA       0.0420
    109 H39        39.3221   54.2111   84.8870 H           1 DVA       0.0729
    110 H40        40.6033   54.1423   80.9853 H           1 DVA       0.1199
    111 H41        38.7960   54.9048   82.5368 H           1 DVA       0.2361
    112 H42        44.3295   53.3531   83.7354 H           1 DVA       0.1885
    113 H43        46.2408   52.4819   83.1609 H           1 DVA       0.0821
    114 H44        46.8034   51.8144   86.0794 H           1 DVA       0.0453
    115 H45        47.6981   51.2242   84.6884 H           1 DVA       0.0453
    116 H46        46.4394   49.7862   82.9622 H           1 DVA       0.0530
    117 H47        44.9041   50.5456   86.8283 H           1 DVA       0.0530
    118 H48        44.9720   47.8819   82.7670 H           1 DVA       0.0525
    119 H49        43.4200   48.6588   86.5952 H           1 DVA       0.0525
    120 H50        42.3211   47.4473   84.6271 H           1 DVA       0.2458
    121 H51        46.0192   55.0431   83.1403 H           1 DVA       0.1884
    122 H52        48.4332   56.2563   84.3084 H           1 DVA       0.0819
    123 H53        45.9323   57.5199   83.0762 H           1 DVA       0.0478
    124 H54        47.3465   58.4125   83.6475 H           1 DVA       0.0478
    125 H55        46.5660   56.2965   81.2669 H           1 DVA       0.1876
    126 H56        49.0246   56.7047   79.7036 H           1 DVA       0.0749
    127 H57        47.1860   57.1943   77.8899 H           1 DVA       0.0599
    128 H58        47.6075   58.4364   79.0738 H           1 DVA       0.0599
    129 H59        45.7922   58.1551   80.1117 H           1 DVA       0.2096
@<TRIPOS>BOND
     1     1     2   1
     2     2     3   1
     3     2     6   1
     4     3     4   1
     5     3     5   1
     6     6     7   2
     7     6     8  am
     8     8     9   1
     9     8    12   1
    10     9    10   1
    11     9    13   1
    12    10    11   1
    13    11    12   1
    14    13    14   2
    15    13    15  am
    16    15    16   1
    17    16    17   1
    18    17    18   2
    19    17    19  am
    20    19    20   1
    21    20    21   1
    22    20    23   1
    23    21    22   2
    24    21    25  am
    25    23    24   1
    26    25    26   1
    27    26    27   1
    28    26    29   1
    29    27    28   2
    30    27    34  am
    31    29    30   1
    32    30    31   1
    33    31    32   2
    34    31    33  am
    35    34    35   1
    36    35    36   1
    37    35    38   1
    38    36    37   2
    39    36    44  am
    40    38    39   1
    41    39    40   1
    42    39    41   2
    43    40    42   2
    44    41    43   1
    45    42    43   1
    46    44    45   1
    47    45    46   1
    48    45    48   1
    49    46    47   2
    50    46    56  am
    51    48    49   1
    52    49    50  ar
    53    49    51  ar
    54    50    52  ar
    55    51    53  ar
    56    52    54  ar
    57    53    54  ar
    58    54    55   1
    59    56    57   1
    60    57    58   1
    61    57    60   1
    62    58    59   2
    63    58    64  am
    64    60    61   1
    65    61    62  ar
    66    61    63  ar
    67    64    65   1
    68    65    66   1
    69    65    69   1
    70    66    67  ar
    71    66    68  ar
    72    69    70   1
    73     1    71   1
    74     1    72   1
    75     1    73   1
    76     2    74   1
    77     3    75   1
    78     4    76   1
    79     4    77   1
    80     4    78   1
    81     5    79   1
    82     5    80   1
    83     5    81   1
    84     9    82   1
    85    10    83   1
    86    10    84   1
    87    11    85   1
    88    11    86   1
    89    12    87   1
    90    12    88   1
    91    15    89   1
    92    16    90   1
    93    16    91   1
    94    19    92   1
    95    20    93   1
    96    23    94   1
    97    23    95   1
    98    24    96   1
    99    25    97   1
   100    26    98   1
   101    29    99   1
   102    29   100   1
   103    30   101   1
   104    30   102   1
   105    33   103   1
   106    33   104   1
   107    34   105   1
   108    35   106   1
   109    38   107   1
   110    38   108   1
   111    41   109   1
   112    42   110   1
   113    43   111   1
   114    44   112   1
   115    45   113   1
   116    48   114   1
   117    48   115   1
   118    50   116   1
   119    51   117   1
   120    52   118   1
   121    53   119   1
   122    55   120   1
   123    56   121   1
   124    57   122   1
   125    60   123   1
   126    60   124   1
   127    64   125   1
   128    65   126   1
   129    69   127   1
   130    69   128   1
   131    70   129   1
@<TRIPOS>SUBSTRUCTURE
     1  DVA      2

