@<TRIPOS>MOLECULE
1zea_ligand_073
   129   131
SMALL
GAST_HUCK
****
This file was generated by PARSER (from files_GN.cpp)

@<TRIPOS>ATOM
      1 N          46.7534   61.4089   78.6965 N.4         1 DVA       0.2381
      2 CA         47.9673   60.6227   78.3914 C.3         1 DVA       0.0675
      3 CB         49.2289   61.5497   78.2688 C.3         1 DVA       0.0139
      4 CG1        49.5539   62.2728   79.6083 C.3         1 DVA      -0.0553
      5 CG2        50.4969   60.7867   77.7793 C.3         1 DVA      -0.0553
      6 C          47.7029   59.8328   77.1820 C.2         1 DVA       0.2295
      7 O          47.3972   60.4858   76.1905 O.2         1 DVA      -0.3905
      8 N          47.8268   58.4930   77.0671 N.am        1 DVA      -0.2471
      9 CA         48.2044   57.5733   78.1154 C.3         1 DVA       0.1339
     10 CB         48.5777   56.2627   77.3803 C.3         1 DVA      -0.0104
     11 CG         47.7690   56.3220   76.0816 C.3         1 DVA      -0.0281
     12 CD         47.6626   57.8292   75.7997 C.3         1 DVA       0.0371
     13 C          47.1384   57.3732   79.0966 C.2         1 DVA       0.2039
     14 O          45.9912   57.1935   78.7024 O.2         1 DVA      -0.3944
     15 N          47.4274   57.3553   80.3926 N.am        1 DVA      -0.2664
     16 CA         46.5029   57.2250   81.4787 C.3         1 DVA       0.1201
     17 C          46.8787   56.1434   82.3626 C.2         1 DVA       0.2008
     18 O          47.1013   56.4080   83.5443 O.2         1 DVA      -0.3947
     19 N          46.9293   54.8928   81.9104 N.am        1 DVA      -0.2618
     20 CA         47.1498   53.7036   82.6915 C.3         1 DVA       0.1539
     21 C          46.0336   52.7692   82.6072 C.2         1 DVA       0.2062
     22 O          45.3520   52.6811   81.5916 O.2         1 DVA      -0.3943
     23 CB         48.4777   53.0256   82.2609 C.3         1 DVA       0.0843
     24 OG         49.0082   52.2655   83.3521 O.3         1 DVA      -0.3903
     25 N          45.7788   51.9933   83.6549 N.am        1 DVA      -0.2635
     26 CA         44.7718   50.9805   83.8160 C.3         1 DVA       0.1330
     27 C          43.4268   51.5200   84.0139 C.2         1 DVA       0.2041
     28 O          42.4481   51.0187   83.4654 O.2         1 DVA      -0.3944
     29 CB         44.9323   49.8261   82.7528 C.3         1 DVA       0.0045
     30 CG         45.4236   48.4824   83.3604 C.3         1 DVA       0.0412
     31 CD         44.5582   47.9825   84.4086 C.2         1 DVA       0.1737
     32 OE1        43.5142   47.3996   84.1381 O.2         1 DVA      -0.3973
     33 NE2        44.8450   48.1464   85.6799 N.am        1 DVA      -0.3009
     34 N          43.2623   52.5035   84.8887 N.am        1 DVA      -0.2625
     35 CA         42.0320   53.0850   85.3615 C.3         1 DVA       0.1369
     36 C          42.1875   53.5353   86.7382 C.2         1 DVA       0.2055
     37 O          43.2918   53.8356   87.1918 O.2         1 DVA      -0.3942
     38 CB         41.6139   54.2736   84.4395 C.3         1 DVA       0.0145
     39 CG         41.5243   53.9150   83.0064 C.2         1 DVA      -0.0027
     40 ND1        42.3850   54.3082   82.0490 N.2         1 DVA      -0.3252
     41 CD2        40.5738   53.0936   82.4126 C.2         1 DVA       0.0291
     42 CE1        41.9790   53.7409   80.8984 C.2         1 DVA       0.0907
     43 NE2        40.8823   53.0050   81.1144 N.pl3       1 DVA      -0.2752
     44 N          41.1102   53.6954   87.4976 N.am        1 DVA      -0.2620
     45 CA         41.0746   54.2080   88.8525 C.3         1 DVA       0.1390
     46 C          41.4030   53.2087   89.8750 C.2         1 DVA       0.2058
     47 O          41.7025   52.0614   89.5483 O.2         1 DVA      -0.3942
     48 CB         41.9195   55.5336   88.9944 C.3         1 DVA       0.0163
     49 CG         41.0864   56.7709   89.0027 C.ar        1 DVA      -0.0493
     50 CD1        40.9447   57.5621   87.8362 C.ar        1 DVA      -0.0685
     51 CD2        40.4445   57.1924   90.1903 C.ar        1 DVA      -0.0685
     52 CE1        40.1797   58.7455   87.8638 C.ar        1 DVA      -0.0398
     53 CE2        39.6929   58.3785   90.2197 C.ar        1 DVA      -0.0398
     54 CZ         39.5652   59.1600   89.0588 C.ar        1 DVA       0.0805
     55 OH         38.8634   60.3147   89.1022 O.3         1 DVA      -0.3376
     56 N          41.3022   53.5494   91.1517 N.am        1 DVA      -0.2620
     57 CA         41.5208   52.7514   92.3210 C.3         1 DVA       0.1423
     58 C          40.5601   51.6517   92.4037 C.2         1 DVA       0.2051
     59 O          40.3863   50.9539   91.4136 O.2         1 DVA      -0.3943
     60 CB         43.0085   52.2863   92.4559 C.3         1 DVA       0.0406
     61 CG         43.3489   51.5393   93.6890 C.2         1 DVA       0.0393
     62 OD1        42.4693   51.3712   94.7055 O.co2       1 DVA      -0.5688
     63 OD2        44.5853   51.0009   93.8237 O.co2       1 DVA      -0.5688
     64 N          39.9173   51.4028   93.5394 N.am        1 DVA      -0.2671
     65 CA         39.0654   50.2809   93.7933 C.3         1 DVA       0.1173
     66 C          38.5112   50.4073   95.1576 C.2         1 DVA       0.0623
     67 O          37.7478   51.4607   95.5175 O.co2       1 DVA      -0.5665
     68 OXT        38.8026   49.4834   96.1081 O.co2       1 DVA      -0.5665
     69 CB         37.9310   50.1484   92.7282 C.3         1 DVA       0.0789
     70 OG         37.9996   48.8980   92.0223 O.3         1 DVA      -0.3910
     71 H1         46.8488   61.8537   79.6101 H           1 DVA       0.2015
     72 H2         45.9364   60.7939   78.7098 H           1 DVA       0.2015
     73 H3         46.6181   62.1295   77.9826 H           1 DVA       0.2015
     74 H4         48.1202   59.9772   79.2533 H           1 DVA       0.1101
     75 H5         49.0135   62.3263   77.5276 H           1 DVA       0.0376
     76 H6         50.4285   62.9159   79.4944 H           1 DVA       0.0236
     77 H7         49.7582   61.5461   80.3972 H           1 DVA       0.0236
     78 H8         48.7206   62.9027   79.9208 H           1 DVA       0.0236
     79 H9         50.3343   60.3605   76.7876 H           1 DVA       0.0236
     80 H10        50.7503   59.9793   78.4687 H           1 DVA       0.0236
     81 H11        51.3492   61.4655   77.7085 H           1 DVA       0.0236
     82 H12        49.1153   57.9314   78.6055 H           1 DVA       0.0802
     83 H13        48.3535   55.3597   77.9538 H           1 DVA       0.0313
     84 H14        49.6449   56.2616   77.1380 H           1 DVA       0.0313
     85 H15        46.7734   55.8973   76.2415 H           1 DVA       0.0287
     86 H16        48.2637   55.7871   75.2664 H           1 DVA       0.0287
     87 H17        48.4566   58.1403   75.1123 H           1 DVA       0.0524
     88 H18        46.6924   58.0540   75.3467 H           1 DVA       0.0524
     89 H19        48.3596   57.4745   80.6410 H           1 DVA       0.1881
     90 H20        45.4803   57.0468   81.1385 H           1 DVA       0.0763
     91 H21        46.5024   58.1810   82.0111 H           1 DVA       0.0763
     92 H22        46.7631   54.7698   80.9593 H           1 DVA       0.1884
     93 H23        47.2743   53.9754   83.7425 H           1 DVA       0.0823
     94 H24        49.2220   53.7824   81.9854 H           1 DVA       0.0606
     95 H25        48.3187   52.3680   81.3989 H           1 DVA       0.0606
     96 H26        49.3976   51.4458   82.9809 H           1 DVA       0.2097
     97 H27        46.3520   52.1282   84.4265 H           1 DVA       0.1883
     98 H28        45.0137   50.5583   84.7987 H           1 DVA       0.0801
     99 H29        45.6582   50.1234   81.9897 H           1 DVA       0.0337
    100 H30        44.0008   49.6374   82.2086 H           1 DVA       0.0337
    101 H31        46.4373   48.6402   83.7425 H           1 DVA       0.0504
    102 H32        45.4912   47.7325   82.5727 H           1 DVA       0.0504
    103 H33        44.2512   47.7955   86.3618 H           1 DVA       0.1814
    104 H34        45.6531   48.6240   85.9398 H           1 DVA       0.1814
    105 H35        44.0833   52.8602   85.2804 H           1 DVA       0.1885
    106 H36        41.2383   52.3310   85.3559 H           1 DVA       0.0817
    107 H37        42.3376   55.0895   84.5542 H           1 DVA       0.0420
    108 H38        40.6367   54.6608   84.7437 H           1 DVA       0.0420
    109 H39        39.7858   52.6375   82.8713 H           1 DVA       0.0729
    110 H40        42.4447   53.8551   79.9930 H           1 DVA       0.1199
    111 H41        40.3983   52.4924   80.4466 H           1 DVA       0.2361
    112 H42        40.2671   53.3848   87.1190 H           1 DVA       0.1885
    113 H43        40.0172   54.4430   89.0274 H           1 DVA       0.0821
    114 H44        42.6589   55.5859   88.1882 H           1 DVA       0.0453
    115 H45        42.5057   55.5278   89.9198 H           1 DVA       0.0453
    116 H46        41.3879   57.2761   86.9515 H           1 DVA       0.0530
    117 H47        40.5235   56.6352   91.0407 H           1 DVA       0.0530
    118 H48        40.0826   59.3058   87.0112 H           1 DVA       0.0525
    119 H49        39.2454   58.6703   91.0866 H           1 DVA       0.0525
    120 H50        37.9860   60.0913   88.7220 H           1 DVA       0.2458
    121 H51        41.0416   54.4675   91.3171 H           1 DVA       0.1884
    122 H52        41.3471   53.4362   93.1569 H           1 DVA       0.0819
    123 H53        43.6613   53.1648   92.4272 H           1 DVA       0.0478
    124 H54        43.2831   51.6503   91.6113 H           1 DVA       0.0478
    125 H55        40.0805   52.0051   94.2780 H           1 DVA       0.1876
    126 H56        39.6627   49.3757   93.7610 H           1 DVA       0.0749
    127 H57        38.0060   50.9412   91.9711 H           1 DVA       0.0599
    128 H58        36.9326   50.2318   93.1840 H           1 DVA       0.0599
    129 H59        37.9839   48.2146   92.7289 H           1 DVA       0.2096
@<TRIPOS>BOND
     1     1     2   1
     2     2     3   1
     3     2     6   1
     4     3     4   1
     5     3     5   1
     6     6     7   2
     7     6     8  am
     8     8     9   1
     9     8    12   1
    10     9    10   1
    11     9    13   1
    12    10    11   1
    13    11    12   1
    14    13    14   2
    15    13    15  am
    16    15    16   1
    17    16    17   1
    18    17    18   2
    19    17    19  am
    20    19    20   1
    21    20    21   1
    22    20    23   1
    23    21    22   2
    24    21    25  am
    25    23    24   1
    26    25    26   1
    27    26    27   1
    28    26    29   1
    29    27    28   2
    30    27    34  am
    31    29    30   1
    32    30    31   1
    33    31    32   2
    34    31    33  am
    35    34    35   1
    36    35    36   1
    37    35    38   1
    38    36    37   2
    39    36    44  am
    40    38    39   1
    41    39    40   1
    42    39    41   2
    43    40    42   2
    44    41    43   1
    45    42    43   1
    46    44    45   1
    47    45    46   1
    48    45    48   1
    49    46    47   2
    50    46    56  am
    51    48    49   1
    52    49    50  ar
    53    49    51  ar
    54    50    52  ar
    55    51    53  ar
    56    52    54  ar
    57    53    54  ar
    58    54    55   1
    59    56    57   1
    60    57    58   1
    61    57    60   1
    62    58    59   2
    63    58    64  am
    64    60    61   1
    65    61    62  ar
    66    61    63  ar
    67    64    65   1
    68    65    66   1
    69    65    69   1
    70    66    67  ar
    71    66    68  ar
    72    69    70   1
    73     1    71   1
    74     1    72   1
    75     1    73   1
    76     2    74   1
    77     3    75   1
    78     4    76   1
    79     4    77   1
    80     4    78   1
    81     5    79   1
    82     5    80   1
    83     5    81   1
    84     9    82   1
    85    10    83   1
    86    10    84   1
    87    11    85   1
    88    11    86   1
    89    12    87   1
    90    12    88   1
    91    15    89   1
    92    16    90   1
    93    16    91   1
    94    19    92   1
    95    20    93   1
    96    23    94   1
    97    23    95   1
    98    24    96   1
    99    25    97   1
   100    26    98   1
   101    29    99   1
   102    29   100   1
   103    30   101   1
   104    30   102   1
   105    33   103   1
   106    33   104   1
   107    34   105   1
   108    35   106   1
   109    38   107   1
   110    38   108   1
   111    41   109   1
   112    42   110   1
   113    43   111   1
   114    44   112   1
   115    45   113   1
   116    48   114   1
   117    48   115   1
   118    50   116   1
   119    51   117   1
   120    52   118   1
   121    53   119   1
   122    55   120   1
   123    56   121   1
   124    57   122   1
   125    60   123   1
   126    60   124   1
   127    64   125   1
   128    65   126   1
   129    69   127   1
   130    69   128   1
   131    70   129   1
@<TRIPOS>SUBSTRUCTURE
     1  DVA      2

