@<TRIPOS>MOLECULE
1zea_ligand_031
   129   131
SMALL
GAST_HUCK
****
This file was generated by PARSER (from files_GN.cpp)

@<TRIPOS>ATOM
      1 N          35.4397   59.8520   96.8638 N.4         1 DVA       0.2381
      2 CA         35.2195   59.8287   98.3212 C.3         1 DVA       0.0675
      3 CB         33.6877   59.8109   98.6636 C.3         1 DVA       0.0139
      4 CG1        33.4338   59.6182  100.1857 C.3         1 DVA      -0.0553
      5 CG2        32.8754   61.0262   98.1282 C.3         1 DVA      -0.0553
      6 C          35.9883   60.9104   98.9536 C.2         1 DVA       0.2295
      7 O          35.6898   62.0458   98.5961 O.2         1 DVA      -0.3905
      8 N          36.9716   60.7640   99.8656 N.am        1 DVA      -0.2471
      9 CA         37.4775   59.5122  100.3765 C.3         1 DVA       0.1339
     10 CB         38.2830   59.8922  101.6437 C.3         1 DVA      -0.0104
     11 CG         38.7112   61.3442  101.4052 C.3         1 DVA      -0.0281
     12 CD         37.6121   61.8977  100.4821 C.3         1 DVA       0.0371
     13 C          38.2846   58.7883   99.3898 C.2         1 DVA       0.2039
     14 O          38.0548   57.6009   99.1967 O.2         1 DVA      -0.3944
     15 N          39.2495   59.4109   98.7200 N.am        1 DVA      -0.2664
     16 CA         40.1255   58.8343   97.7447 C.3         1 DVA       0.1201
     17 C          39.4856   58.5941   96.4666 C.2         1 DVA       0.2008
     18 O          38.6151   59.3795   96.0991 O.2         1 DVA      -0.3947
     19 N          39.8666   57.5715   95.7112 N.am        1 DVA      -0.2618
     20 CA         39.3467   57.1953   94.4267 C.3         1 DVA       0.1539
     21 C          40.4219   57.1855   93.4395 C.2         1 DVA       0.2062
     22 O          41.4504   56.5603   93.6645 O.2         1 DVA      -0.3943
     23 CB         38.6348   55.8190   94.5141 C.3         1 DVA       0.0843
     24 OG         39.4448   54.8034   95.1056 O.3         1 DVA      -0.3903
     25 N          40.2321   57.7912   92.2713 N.am        1 DVA      -0.2635
     26 CA         41.1025   57.8010   91.1255 C.3         1 DVA       0.1330
     27 C          40.5315   56.8601   90.1669 C.2         1 DVA       0.2041
     28 O          39.4947   57.1604   89.5819 O.2         1 DVA      -0.3944
     29 CB         41.2531   59.2794   90.6285 C.3         1 DVA       0.0045
     30 CG         41.4938   59.5121   89.1032 C.3         1 DVA       0.0412
     31 CD         40.3167   59.3425   88.2679 C.2         1 DVA       0.1737
     32 OE1        40.4112   58.8962   87.1295 O.2         1 DVA      -0.3973
     33 NE2        39.1184   59.6820   88.6945 N.am        1 DVA      -0.3009
     34 N          41.1245   55.6894   89.9784 N.am        1 DVA      -0.2625
     35 CA         40.7339   54.6273   89.0882 C.3         1 DVA       0.1369
     36 C          41.6099   54.5616   87.9128 C.2         1 DVA       0.2055
     37 O          42.6443   55.2213   87.8858 O.2         1 DVA      -0.3942
     38 CB         40.6784   53.2835   89.8746 C.3         1 DVA       0.0145
     39 CG         41.9719   52.8271   90.4321 C.2         1 DVA      -0.0027
     40 ND1        42.6494   53.4370   91.4220 N.2         1 DVA      -0.3252
     41 CD2        42.7135   51.7114   90.0438 C.2         1 DVA       0.0291
     42 CE1        43.7730   52.7282   91.6370 C.2         1 DVA       0.0907
     43 NE2        43.8154   51.6816   90.8005 N.pl3       1 DVA      -0.2752
     44 N          41.2638   53.8018   86.8814 N.am        1 DVA      -0.2620
     45 CA         41.9403   53.6973   85.6121 C.3         1 DVA       0.1390
     46 C          42.5991   52.3963   85.5445 C.2         1 DVA       0.2058
     47 O          42.3119   51.5918   84.6631 O.2         1 DVA      -0.3942
     48 CB         40.9230   54.0365   84.4721 C.3         1 DVA       0.0163
     49 CG         41.4133   53.9452   83.0621 C.ar        1 DVA      -0.0493
     50 CD1        40.5434   53.5411   82.0157 C.ar        1 DVA      -0.0685
     51 CD2        42.7287   54.3384   82.7111 C.ar        1 DVA      -0.0685
     52 CE1        40.9769   53.5131   80.6824 C.ar        1 DVA      -0.0398
     53 CE2        43.1771   54.2725   81.3805 C.ar        1 DVA      -0.0398
     54 CZ         42.3006   53.8723   80.3569 C.ar        1 DVA       0.0805
     55 OH         42.7005   53.8412   79.0625 O.3         1 DVA      -0.3376
     56 N          43.5646   52.1403   86.4217 N.am        1 DVA      -0.2620
     57 CA         44.4191   50.9885   86.5015 C.3         1 DVA       0.1423
     58 C          45.0925   50.7618   85.2282 C.2         1 DVA       0.2051
     59 O          45.8678   51.6134   84.8072 O.2         1 DVA      -0.3943
     60 CB         45.4238   51.1916   87.6745 C.3         1 DVA       0.0406
     61 CG         46.5482   50.2241   87.7135 C.2         1 DVA       0.0393
     62 OD1        46.8038   49.5046   88.8333 O.co2       1 DVA      -0.5688
     63 OD2        47.5204   50.2934   86.7716 O.co2       1 DVA      -0.5688
     64 N          44.8684   49.6391   84.5549 N.am        1 DVA      -0.2671
     65 CA         45.4286   49.2454   83.2902 C.3         1 DVA       0.1173
     66 C          44.8994   50.1026   82.2027 C.2         1 DVA       0.0623
     67 O          43.5655   50.2288   82.0342 O.co2       1 DVA      -0.5665
     68 OXT        45.7052   50.8749   81.4392 O.co2       1 DVA      -0.5665
     69 CB         46.9802   49.1615   83.3515 C.3         1 DVA       0.0789
     70 OG         47.4806   48.1980   82.4264 O.3         1 DVA      -0.3910
     71 H1         34.8999   59.1015   96.4264 H           1 DVA       0.2015
     72 H2         36.4333   59.7090   96.6665 H           1 DVA       0.2015
     73 H3         35.1448   60.7501   96.4773 H           1 DVA       0.2015
     74 H4         35.6052   58.8587   98.6295 H           1 DVA       0.1101
     75 H5         33.2697   58.9271   98.1702 H           1 DVA       0.0376
     76 H6         32.3640   59.5196  100.3848 H           1 DVA       0.0236
     77 H7         33.8145   60.4701  100.7529 H           1 DVA       0.0236
     78 H8         33.9267   58.7125  100.5416 H           1 DVA       0.0236
     79 H9         33.0675   61.1821   97.0651 H           1 DVA       0.0236
     80 H10        33.1298   61.9385   98.6692 H           1 DVA       0.0236
     81 H11        31.8054   60.8450   98.2508 H           1 DVA       0.0236
     82 H12        36.6422   58.8860  100.7109 H           1 DVA       0.0802
     83 H13        39.1438   59.2414  101.8225 H           1 DVA       0.0313
     84 H14        37.6321   59.8515  102.5232 H           1 DVA       0.0313
     85 H15        39.6817   61.3708  100.9015 H           1 DVA       0.0287
     86 H16        38.7808   61.9053  102.3404 H           1 DVA       0.0287
     87 H17        36.8816   62.4642  101.0687 H           1 DVA       0.0524
     88 H18        38.0565   62.5574   99.7309 H           1 DVA       0.0524
     89 H19        39.3866   60.3508   98.9205 H           1 DVA       0.1881
     90 H20        40.5584   57.9201   98.1603 H           1 DVA       0.0763
     91 H21        40.9460   59.5355   97.5826 H           1 DVA       0.0763
     92 H22        40.5910   57.0251   96.0561 H           1 DVA       0.1884
     93 H23        38.5770   57.9085   94.1118 H           1 DVA       0.0823
     94 H24        38.3552   55.4816   93.5120 H           1 DVA       0.0606
     95 H25        37.7227   55.9152   95.1021 H           1 DVA       0.0606
     96 H26        39.4596   55.0042   96.0644 H           1 DVA       0.2097
     97 H27        39.3617   58.2116   92.1428 H           1 DVA       0.1883
     98 H28        42.1033   57.4642   91.4132 H           1 DVA       0.0801
     99 H29        42.1180   59.7031   91.1564 H           1 DVA       0.0337
    100 H30        40.3905   59.8781   90.9479 H           1 DVA       0.0337
    101 H31        42.2948   58.8442   88.7671 H           1 DVA       0.0504
    102 H32        41.8510   60.5390   88.9673 H           1 DVA       0.0504
    103 H33        38.3361   59.5372   88.1349 H           1 DVA       0.1814
    104 H34        39.0018   60.0453   89.5891 H           1 DVA       0.1814
    105 H35        41.9385   55.5290   90.4865 H           1 DVA       0.1885
    106 H36        39.7185   54.8134   88.7176 H           1 DVA       0.0817
    107 H37        40.2700   52.5046   89.2281 H           1 DVA       0.0420
    108 H38        39.9849   53.3948   90.7115 H           1 DVA       0.0420
    109 H39        42.4645   51.0360   89.3136 H           1 DVA       0.0729
    110 H40        44.4882   52.9597   92.3278 H           1 DVA       0.1199
    111 H41        44.5238   51.0214   90.7537 H           1 DVA       0.2361
    112 H42        40.4464   53.2867   86.9704 H           1 DVA       0.1885
    113 H43        42.7303   54.4524   85.5472 H           1 DVA       0.0821
    114 H44        40.5824   55.0704   84.6229 H           1 DVA       0.0453
    115 H45        40.0434   53.3989   84.5962 H           1 DVA       0.0453
    116 H46        39.5753   53.2773   82.2273 H           1 DVA       0.0530
    117 H47        43.3844   54.6712   83.4207 H           1 DVA       0.0530
    118 H48        40.3238   53.2358   79.9429 H           1 DVA       0.0525
    119 H49        44.1327   54.5487   81.1531 H           1 DVA       0.0525
    120 H50        43.6810   53.8947   79.0751 H           1 DVA       0.2458
    121 H51        43.7225   52.8376   87.0869 H           1 DVA       0.1884
    122 H52        43.7913   50.1276   86.7633 H           1 DVA       0.0819
    123 H53        44.8714   51.1135   88.6187 H           1 DVA       0.0478
    124 H54        45.8466   52.2083   87.6340 H           1 DVA       0.0478
    125 H55        44.2330   49.0127   84.9487 H           1 DVA       0.1876
    126 H56        45.0647   48.2334   83.1062 H           1 DVA       0.0749
    127 H57        47.3080   48.8535   84.3482 H           1 DVA       0.0599
    128 H58        47.4373   50.1258   83.1375 H           1 DVA       0.0599
    129 H59        46.9402   48.3007   81.6170 H           1 DVA       0.2096
@<TRIPOS>BOND
     1     1     2   1
     2     2     3   1
     3     2     6   1
     4     3     4   1
     5     3     5   1
     6     6     7   2
     7     6     8  am
     8     8     9   1
     9     8    12   1
    10     9    10   1
    11     9    13   1
    12    10    11   1
    13    11    12   1
    14    13    14   2
    15    13    15  am
    16    15    16   1
    17    16    17   1
    18    17    18   2
    19    17    19  am
    20    19    20   1
    21    20    21   1
    22    20    23   1
    23    21    22   2
    24    21    25  am
    25    23    24   1
    26    25    26   1
    27    26    27   1
    28    26    29   1
    29    27    28   2
    30    27    34  am
    31    29    30   1
    32    30    31   1
    33    31    32   2
    34    31    33  am
    35    34    35   1
    36    35    36   1
    37    35    38   1
    38    36    37   2
    39    36    44  am
    40    38    39   1
    41    39    40   1
    42    39    41   2
    43    40    42   2
    44    41    43   1
    45    42    43   1
    46    44    45   1
    47    45    46   1
    48    45    48   1
    49    46    47   2
    50    46    56  am
    51    48    49   1
    52    49    50  ar
    53    49    51  ar
    54    50    52  ar
    55    51    53  ar
    56    52    54  ar
    57    53    54  ar
    58    54    55   1
    59    56    57   1
    60    57    58   1
    61    57    60   1
    62    58    59   2
    63    58    64  am
    64    60    61   1
    65    61    62  ar
    66    61    63  ar
    67    64    65   1
    68    65    66   1
    69    65    69   1
    70    66    67  ar
    71    66    68  ar
    72    69    70   1
    73     1    71   1
    74     1    72   1
    75     1    73   1
    76     2    74   1
    77     3    75   1
    78     4    76   1
    79     4    77   1
    80     4    78   1
    81     5    79   1
    82     5    80   1
    83     5    81   1
    84     9    82   1
    85    10    83   1
    86    10    84   1
    87    11    85   1
    88    11    86   1
    89    12    87   1
    90    12    88   1
    91    15    89   1
    92    16    90   1
    93    16    91   1
    94    19    92   1
    95    20    93   1
    96    23    94   1
    97    23    95   1
    98    24    96   1
    99    25    97   1
   100    26    98   1
   101    29    99   1
   102    29   100   1
   103    30   101   1
   104    30   102   1
   105    33   103   1
   106    33   104   1
   107    34   105   1
   108    35   106   1
   109    38   107   1
   110    38   108   1
   111    41   109   1
   112    42   110   1
   113    43   111   1
   114    44   112   1
   115    45   113   1
   116    48   114   1
   117    48   115   1
   118    50   116   1
   119    51   117   1
   120    52   118   1
   121    53   119   1
   122    55   120   1
   123    56   121   1
   124    57   122   1
   125    60   123   1
   126    60   124   1
   127    64   125   1
   128    65   126   1
   129    69   127   1
   130    69   128   1
   131    70   129   1
@<TRIPOS>SUBSTRUCTURE
     1  DVA      2

