@<TRIPOS>MOLECULE
2brb_ligand_029
    42    45
SMALL
GAST_HUCK
****
This file was generated by PARSER (from files_GN.cpp)

@<TRIPOS>ATOM
      1 C2         12.8873   -5.2589   13.6508 C.ar        1 PFQ       0.0554
      2 C10        16.4217   -6.7107   16.0525 C.2         1 PFQ       0.1438
      3 C11        17.3337   -7.0286   17.0904 C.ar        1 PFQ       0.0192
      4 C12        18.7125   -7.2200   16.8391 C.ar        1 PFQ      -0.0510
      5 C13        19.6040   -7.5272   17.8844 C.ar        1 PFQ      -0.0615
      6 C14        19.1263   -7.6588   19.2003 C.ar        1 PFQ      -0.0622
      7 C15        17.7564   -7.4845   19.4648 C.ar        1 PFQ      -0.0615
      8 C16        16.8704   -7.1544   18.4210 C.ar        1 PFQ      -0.0510
      9 C19        16.9171   -9.6061   14.6347 C.ar        1 PFQ      -0.0609
     10 C20        17.6376  -10.6569   14.0400 C.ar        1 PFQ      -0.0660
     11 C21        18.5511  -10.3879   13.0027 C.ar        1 PFQ      -0.0660
     12 C22        18.7405   -9.0655   12.5556 C.ar        1 PFQ      -0.0660
     13 N1         13.5274   -5.1000   14.8346 N.ar        1 PFQ      -0.2620
     14 C6         14.6744   -5.7847   15.0842 C.ar        1 PFQ       0.2013
     15 O6         15.3880   -5.8487   16.2308 O.3         1 PFQ      -0.2284
     16 C5         15.2088   -6.6658   14.1425 C.ar        1 PFQ       0.0757
     17 N9         14.9643   -7.7125   11.9892 N.pl3       1 PFQ      -0.2984
     18 C4         14.5099   -6.8538   12.9279 C.ar        1 PFQ       0.1260
     19 N3         13.3676   -6.1418   12.7330 N.ar        1 PFQ      -0.2686
     20 C17        18.0257   -8.0138   13.1560 C.ar        1 PFQ      -0.0609
     21 C1         16.3334   -7.2375   14.7496 C.2         1 PFQ       0.0223
     22 C18        17.1039   -8.2781   14.1918 C.ar        1 PFQ      -0.0309
     23 C23        12.9903   -9.2423   11.6246 C.3         1 PFQ       0.0648
     24 C8         14.4836   -9.0548   11.9319 C.3         1 PFQ       0.0533
     25 O24        12.6857  -10.6313   11.5597 O.3         1 PFQ      -0.3930
     26 H1         12.0258   -4.7411   13.4773 H           1 PFQ       0.1000
     27 H2         19.0843   -7.1000   15.8938 H           1 PFQ       0.0623
     28 H3         20.6000   -7.6431   17.6873 H           1 PFQ       0.0616
     29 H4         19.7748   -7.8862   19.9561 H           1 PFQ       0.0614
     30 H5         17.4153   -7.5854   20.4235 H           1 PFQ       0.0616
     31 H6         15.8837   -7.0339   18.6466 H           1 PFQ       0.0623
     32 H7         16.2414   -9.8307   15.3710 H           1 PFQ       0.0583
     33 H8         17.5165  -11.6207   14.3632 H           1 PFQ       0.0606
     34 H9         19.0871  -11.1444   12.5717 H           1 PFQ       0.0581
     35 H10        19.4119   -8.8576   11.8168 H           1 PFQ       0.0606
     36 H11        15.9379   -7.7174   11.9052 H           1 PFQ       0.1865
     37 H12        18.1641   -7.0508   12.8257 H           1 PFQ       0.0583
     38 H13        12.7379   -8.7870   10.6532 H           1 PFQ       0.0578
     39 H14        12.3787   -8.7897   12.4140 H           1 PFQ       0.0578
     40 H15        14.7035   -9.5357   12.9005 H           1 PFQ       0.0549
     41 H16        15.0621   -9.5773   11.1629 H           1 PFQ       0.0549
     42 H17        11.6957  -10.6506   11.5326 H           1 PFQ       0.2095
@<TRIPOS>BOND
     1    13     1  ar
     2    19     1  ar
     3     2     3   1
     4     2    15   1
     5    21     2   2
     6     3     4  ar
     7     3     8  ar
     8     4     5  ar
     9     5     6  ar
    10     7     6  ar
    11     8     7  ar
    12     9    10  ar
    13    22     9  ar
    14    10    11  ar
    15    12    11  ar
    16    20    12  ar
    17    14    13  ar
    18    14    15   1
    19    16    14  ar
    20    16    18  ar
    21    21    16   1
    22    18    17   1
    23    17    24   1
    24    18    19  ar
    25    22    20  ar
    26    21    22   1
    27    24    23   1
    28    23    25   1
    29     1    26   1
    30     4    27   1
    31     5    28   1
    32     6    29   1
    33     7    30   1
    34     8    31   1
    35     9    32   1
    36    10    33   1
    37    11    34   1
    38    12    35   1
    39    17    36   1
    40    20    37   1
    41    23    38   1
    42    23    39   1
    43    24    40   1
    44    24    41   1
    45    25    42   1
@<TRIPOS>SUBSTRUCTURE
     1  PFQ      1

