@<TRIPOS>MOLECULE
2brb_ligand_011
    42    45
SMALL
GAST_HUCK
****
This file was generated by PARSER (from files_GN.cpp)

@<TRIPOS>ATOM
      1 C2         12.7366    0.4543   10.4551 C.ar        1 PFQ       0.0554
      2 C10        15.5544   -2.8141   11.6585 C.2         1 PFQ       0.1438
      3 C11        16.4043   -3.9299   11.5136 C.ar        1 PFQ       0.0192
      4 C12        17.3046   -4.3227   12.5304 C.ar        1 PFQ      -0.0510
      5 C13        18.1042   -5.4731   12.3587 C.ar        1 PFQ      -0.0615
      6 C14        17.9974   -6.2385   11.1864 C.ar        1 PFQ      -0.0622
      7 C15        17.0948   -5.8627   10.1752 C.ar        1 PFQ      -0.0615
      8 C16        16.3117   -4.7048   10.3371 C.ar        1 PFQ      -0.0510
      9 C19        13.1468   -4.7540   12.8513 C.ar        1 PFQ      -0.0609
     10 C20        12.5638   -5.6901   13.7263 C.ar        1 PFQ      -0.0660
     11 C21        12.7630   -5.5725   15.1142 C.ar        1 PFQ      -0.0660
     12 C22        13.5502   -4.5280   15.6286 C.ar        1 PFQ      -0.0660
     13 N1         13.9709   -0.0508   10.2021 N.ar        1 PFQ      -0.2620
     14 C6         14.4387   -1.0702   10.9576 C.ar        1 PFQ       0.2013
     15 O6         15.5434   -1.8129   10.7437 O.3         1 PFQ      -0.2284
     16 C5         13.6999   -1.6151   12.0102 C.ar        1 PFQ       0.0757
     17 N9         11.6027   -1.6708   13.1882 N.pl3       1 PFQ      -0.2984
     18 C4         12.4014   -1.1041   12.2461 C.ar        1 PFQ       0.1260
     19 N3         11.9770   -0.0907   11.4444 N.ar        1 PFQ      -0.2686
     20 C17        14.1377   -3.5898   14.7542 C.ar        1 PFQ      -0.0609
     21 C1         14.4245   -2.7103   12.4813 C.2         1 PFQ       0.0223
     22 C18        13.9347   -3.6975   13.3610 C.ar        1 PFQ      -0.0309
     23 C23         9.5359   -0.1617   13.2330 C.3         1 PFQ       0.0648
     24 C8         10.1797   -1.5708   13.2808 C.3         1 PFQ       0.0533
     25 O24         9.9147    0.6316   14.3431 O.3         1 PFQ      -0.3930
     26 H1         12.3567    1.2062    9.8844 H           1 PFQ       0.1000
     27 H2         17.3884   -3.7781   13.3907 H           1 PFQ       0.0623
     28 H3         18.7591   -5.7509   13.0926 H           1 PFQ       0.0616
     29 H4         18.5644   -7.0797   11.0704 H           1 PFQ       0.0614
     30 H5         16.9996   -6.4281    9.3305 H           1 PFQ       0.0616
     31 H6         15.6499   -4.4518    9.5976 H           1 PFQ       0.0623
     32 H7         12.9759   -4.8434   11.8458 H           1 PFQ       0.0583
     33 H8         11.9872   -6.4495   13.3570 H           1 PFQ       0.0606
     34 H9         12.3267   -6.2471   15.7496 H           1 PFQ       0.0581
     35 H10        13.6890   -4.4412   16.6396 H           1 PFQ       0.0606
     36 H11        11.9980   -2.3791   13.7164 H           1 PFQ       0.1865
     37 H12        14.6943   -2.8236   15.1430 H           1 PFQ       0.0583
     38 H13         8.4469   -0.2720   13.2386 H           1 PFQ       0.0578
     39 H14         9.8112    0.3594   12.3186 H           1 PFQ       0.0578
     40 H15         9.8900   -2.0465   14.2208 H           1 PFQ       0.0549
     41 H16         9.7514   -2.1756   12.4774 H           1 PFQ       0.0549
     42 H17         9.5821    1.5379   14.1305 H           1 PFQ       0.2095
@<TRIPOS>BOND
     1    13     1  ar
     2    19     1  ar
     3     2     3   1
     4     2    15   1
     5    21     2   2
     6     3     4  ar
     7     3     8  ar
     8     4     5  ar
     9     5     6  ar
    10     7     6  ar
    11     8     7  ar
    12     9    10  ar
    13    22     9  ar
    14    10    11  ar
    15    12    11  ar
    16    20    12  ar
    17    14    13  ar
    18    14    15   1
    19    16    14  ar
    20    16    18  ar
    21    21    16   1
    22    18    17   1
    23    17    24   1
    24    18    19  ar
    25    22    20  ar
    26    21    22   1
    27    24    23   1
    28    23    25   1
    29     1    26   1
    30     4    27   1
    31     5    28   1
    32     6    29   1
    33     7    30   1
    34     8    31   1
    35     9    32   1
    36    10    33   1
    37    11    34   1
    38    12    35   1
    39    17    36   1
    40    20    37   1
    41    23    38   1
    42    23    39   1
    43    24    40   1
    44    24    41   1
    45    25    42   1
@<TRIPOS>SUBSTRUCTURE
     1  PFQ      1

