@<TRIPOS>MOLECULE
2brb_ligand_021
    42    45
SMALL
GAST_HUCK
****
This file was generated by PARSER (from files_GN.cpp)

@<TRIPOS>ATOM
      1 C2         11.3543   -2.2290   12.5257 C.ar        1 PFQ       0.0554
      2 C10        15.6208   -1.9330   11.1597 C.2         1 PFQ       0.1438
      3 C11        16.8960   -1.5220   10.7286 C.ar        1 PFQ       0.0192
      4 C12        17.0249   -0.8551    9.4911 C.ar        1 PFQ      -0.0510
      5 C13        18.2925   -0.4535    9.0309 C.ar        1 PFQ      -0.0615
      6 C14        19.4367   -0.6784    9.8241 C.ar        1 PFQ      -0.0622
      7 C15        19.3132   -1.3114   11.0719 C.ar        1 PFQ      -0.0615
      8 C16        18.0497   -1.7466   11.5147 C.ar        1 PFQ      -0.0510
      9 C19        16.6091   -4.8585   12.7682 C.ar        1 PFQ      -0.0609
     10 C20        17.3778   -6.0401   12.7526 C.ar        1 PFQ      -0.0660
     11 C21        17.5410   -6.7496   11.5450 C.ar        1 PFQ      -0.0660
     12 C22        16.9476   -6.2802   10.3617 C.ar        1 PFQ      -0.0660
     13 N1         12.2618   -1.3539   12.0179 N.ar        1 PFQ      -0.2620
     14 C6         13.5084   -1.7931   11.7129 C.ar        1 PFQ       0.2013
     15 O6         14.5593   -1.0917   11.2352 O.3         1 PFQ      -0.2284
     16 C5         13.8801   -3.1199   11.9073 C.ar        1 PFQ       0.0757
     17 N9         13.2903   -5.2952   12.7070 N.pl3       1 PFQ      -0.2984
     18 C4         12.9311   -4.0191   12.4323 C.ar        1 PFQ       0.1260
     19 N3         11.6956   -3.5277   12.7325 N.ar        1 PFQ      -0.2686
     20 C17        16.2024   -5.0869   10.3715 C.ar        1 PFQ      -0.0609
     21 C1         15.2325   -3.2093   11.5768 C.2         1 PFQ       0.0223
     22 C18        16.0260   -4.3749   11.5793 C.ar        1 PFQ      -0.0309
     23 C23        12.8828   -5.2770   15.1355 C.3         1 PFQ       0.0648
     24 C8         12.8236   -6.0698   13.8022 C.3         1 PFQ       0.0533
     25 O24        14.0917   -4.5462   15.2601 O.3         1 PFQ      -0.3930
     26 H1         10.4216   -1.8973   12.7786 H           1 PFQ       0.1000
     27 H2         16.2062   -0.6829    8.9042 H           1 PFQ       0.0623
     28 H3         18.3811    0.0092    8.1213 H           1 PFQ       0.0616
     29 H4         20.3527   -0.3773    9.4926 H           1 PFQ       0.0614
     30 H5         20.1368   -1.4510   11.6590 H           1 PFQ       0.0616
     31 H6         17.9773   -2.2065   12.4285 H           1 PFQ       0.0623
     32 H7         16.4823   -4.3580   13.6553 H           1 PFQ       0.0583
     33 H8         17.8083   -6.3845   13.6103 H           1 PFQ       0.0606
     34 H9         18.0929   -7.6134   11.5329 H           1 PFQ       0.0581
     35 H10        17.0501   -6.8036    9.4890 H           1 PFQ       0.0606
     36 H11        14.0198   -5.6693   12.1939 H           1 PFQ       0.1865
     37 H12        15.7819   -4.7534    9.5041 H           1 PFQ       0.0583
     38 H13        12.7973   -5.9649   15.9703 H           1 PFQ       0.0578
     39 H14        12.0562   -4.5697   15.1916 H           1 PFQ       0.0578
     40 H15        13.4806   -6.9386   13.8831 H           1 PFQ       0.0549
     41 H16        11.8149   -6.4344   13.6168 H           1 PFQ       0.0549
     42 H17        14.7968   -5.2167   15.3994 H           1 PFQ       0.2095
@<TRIPOS>BOND
     1    13     1  ar
     2    19     1  ar
     3     2     3   1
     4     2    15   1
     5    21     2   2
     6     3     4  ar
     7     3     8  ar
     8     4     5  ar
     9     5     6  ar
    10     7     6  ar
    11     8     7  ar
    12     9    10  ar
    13    22     9  ar
    14    10    11  ar
    15    12    11  ar
    16    20    12  ar
    17    14    13  ar
    18    14    15   1
    19    16    14  ar
    20    16    18  ar
    21    21    16   1
    22    18    17   1
    23    17    24   1
    24    18    19  ar
    25    22    20  ar
    26    21    22   1
    27    24    23   1
    28    23    25   1
    29     1    26   1
    30     4    27   1
    31     5    28   1
    32     6    29   1
    33     7    30   1
    34     8    31   1
    35     9    32   1
    36    10    33   1
    37    11    34   1
    38    12    35   1
    39    17    36   1
    40    20    37   1
    41    23    38   1
    42    23    39   1
    43    24    40   1
    44    24    41   1
    45    25    42   1
@<TRIPOS>SUBSTRUCTURE
     1  PFQ      1

