@<TRIPOS>MOLECULE
2brb_ligand_013
    42    45
SMALL
GAST_HUCK
****
This file was generated by PARSER (from files_GN.cpp)

@<TRIPOS>ATOM
      1 C2         18.1744   -2.1278    8.7621 C.ar        1 PFQ       0.0554
      2 C10        15.6908   -5.0852   11.0609 C.2         1 PFQ       0.1438
      3 C11        15.3150   -6.2626   11.7724 C.ar        1 PFQ       0.0192
      4 C12        14.5697   -6.2361   12.9758 C.ar        1 PFQ      -0.0510
      5 C13        14.2853   -7.4171   13.6861 C.ar        1 PFQ      -0.0615
      6 C14        14.7421   -8.6540   13.2019 C.ar        1 PFQ      -0.0622
      7 C15        15.4804   -8.7077   12.0056 C.ar        1 PFQ      -0.0615
      8 C16        15.7617   -7.5226   11.3028 C.ar        1 PFQ      -0.0510
      9 C19        12.7589   -3.5482   11.2673 C.ar        1 PFQ      -0.0609
     10 C20        11.6285   -3.1411   11.9953 C.ar        1 PFQ      -0.0660
     11 C21        11.7817   -2.5302   13.2572 C.ar        1 PFQ      -0.0660
     12 C22        13.0714   -2.3005   13.7691 C.ar        1 PFQ      -0.0660
     13 N1         18.0680   -3.4451    9.0665 N.ar        1 PFQ      -0.2620
     14 C6         17.0204   -3.8650    9.8127 C.ar        1 PFQ       0.2013
     15 O6         16.8018   -5.1031   10.2820 O.3         1 PFQ      -0.2284
     16 C5         16.0305   -2.9951   10.2763 C.ar        1 PFQ       0.0757
     17 N9         15.2776   -0.6258   10.1743 N.pl3       1 PFQ      -0.2984
     18 C4         16.1431   -1.6281    9.9076 C.ar        1 PFQ       0.1260
     19 N3         17.2353   -1.2452    9.1896 N.ar        1 PFQ      -0.2686
     20 C17        14.2084   -2.6695   13.0297 C.ar        1 PFQ      -0.0609
     21 C1         15.1710   -3.7739   11.0614 C.2         1 PFQ       0.0223
     22 C18        14.0557   -3.3146   11.7805 C.ar        1 PFQ      -0.0309
     23 C23        13.0178    0.3381   10.2560 C.3         1 PFQ       0.0648
     24 C8         14.0635   -0.4448    9.4364 C.3         1 PFQ       0.0533
     25 O24        13.6162    1.4195   10.9769 O.3         1 PFQ      -0.3930
     26 H1         18.9533   -1.8022    8.1891 H           1 PFQ       0.1000
     27 H2         14.2400   -5.3628   13.3708 H           1 PFQ       0.0623
     28 H3         13.7407   -7.3718   14.5528 H           1 PFQ       0.0616
     29 H4         14.5265   -9.5149   13.7176 H           1 PFQ       0.0614
     30 H5         15.8051   -9.6111   11.6545 H           1 PFQ       0.0616
     31 H6         16.2988   -7.5970   10.4387 H           1 PFQ       0.0623
     32 H7         12.6239   -4.0023   10.3614 H           1 PFQ       0.0583
     33 H8         10.6883   -3.2872   11.6099 H           1 PFQ       0.0606
     34 H9         10.9544   -2.2463   13.7926 H           1 PFQ       0.0581
     35 H10        13.1764   -1.8675   14.6876 H           1 PFQ       0.0606
     36 H11        15.6914    0.2370   10.4093 H           1 PFQ       0.1865
     37 H12        15.1342   -2.4986   13.4113 H           1 PFQ       0.0583
     38 H13        12.5312   -0.3229   10.9815 H           1 PFQ       0.0578
     39 H14        12.2341    0.7435    9.5882 H           1 PFQ       0.0578
     40 H15        13.6228   -1.3859    9.0915 H           1 PFQ       0.0549
     41 H16        14.2983    0.1599    8.5514 H           1 PFQ       0.0549
     42 H17        13.7499    2.1149   10.2964 H           1 PFQ       0.2095
@<TRIPOS>BOND
     1    13     1  ar
     2    19     1  ar
     3     2     3   1
     4     2    15   1
     5    21     2   2
     6     3     4  ar
     7     3     8  ar
     8     4     5  ar
     9     5     6  ar
    10     7     6  ar
    11     8     7  ar
    12     9    10  ar
    13    22     9  ar
    14    10    11  ar
    15    12    11  ar
    16    20    12  ar
    17    14    13  ar
    18    14    15   1
    19    16    14  ar
    20    16    18  ar
    21    21    16   1
    22    18    17   1
    23    17    24   1
    24    18    19  ar
    25    22    20  ar
    26    21    22   1
    27    24    23   1
    28    23    25   1
    29     1    26   1
    30     4    27   1
    31     5    28   1
    32     6    29   1
    33     7    30   1
    34     8    31   1
    35     9    32   1
    36    10    33   1
    37    11    34   1
    38    12    35   1
    39    17    36   1
    40    20    37   1
    41    23    38   1
    42    23    39   1
    43    24    40   1
    44    24    41   1
    45    25    42   1
@<TRIPOS>SUBSTRUCTURE
     1  PFQ      1

