@<TRIPOS>MOLECULE
2brb_ligand_012
    42    45
SMALL
GAST_HUCK
****
This file was generated by PARSER (from files_GN.cpp)

@<TRIPOS>ATOM
      1 C2         11.3710   -2.3774   12.3612 C.ar        1 PFQ       0.0554
      2 C10        14.9873   -5.0652   12.2891 C.2         1 PFQ       0.1438
      3 C11        15.8269   -6.2205   12.2460 C.ar        1 PFQ       0.0192
      4 C12        17.2415   -6.1451   12.3163 C.ar        1 PFQ      -0.0510
      5 C13        18.0272   -7.3078   12.2300 C.ar        1 PFQ      -0.0615
      6 C14        17.4199   -8.5611   12.0681 C.ar        1 PFQ      -0.0622
      7 C15        16.0227   -8.6552   11.9761 C.ar        1 PFQ      -0.0615
      8 C16        15.2336   -7.4934   12.0645 C.ar        1 PFQ      -0.0510
      9 C19        17.3463   -2.5507   12.0552 C.ar        1 PFQ      -0.0609
     10 C20        18.4555   -1.9234   11.4544 C.ar        1 PFQ      -0.0660
     11 C21        18.5877   -1.9219   10.0565 C.ar        1 PFQ      -0.0660
     12 C22        17.6173   -2.5492    9.2572 C.ar        1 PFQ      -0.0660
     13 N1         11.8139   -3.6007   12.7292 N.ar        1 PFQ      -0.2620
     14 C6         13.1047   -3.9402   12.5183 C.ar        1 PFQ       0.2013
     15 O6         13.6957   -5.1395   12.7154 O.3         1 PFQ      -0.2284
     16 C5         14.0107   -3.0550   11.9387 C.ar        1 PFQ       0.0757
     17 N9         14.3736   -0.9573   10.8144 N.pl3       1 PFQ      -0.2984
     18 C4         13.5323   -1.7944   11.4875 C.ar        1 PFQ       0.1260
     19 N3         12.2126   -1.5208   11.7242 N.ar        1 PFQ      -0.2686
     20 C17        16.5237   -3.2033    9.8495 C.ar        1 PFQ      -0.0609
     21 C1         15.2263   -3.7457   11.8585 C.2         1 PFQ       0.0223
     22 C18        16.3774   -3.1989   11.2571 C.ar        1 PFQ      -0.0309
     23 C23        12.7202    0.1263    9.1158 C.3         1 PFQ       0.0648
     24 C8         14.1458   -0.2216    9.5910 C.3         1 PFQ       0.0533
     25 O24        12.1208    1.0611    9.9904 O.3         1 PFQ      -0.3930
     26 H1         10.3953   -2.1309   12.5071 H           1 PFQ       0.1000
     27 H2         17.7122   -5.2533   12.4697 H           1 PFQ       0.0623
     28 H3         19.0431   -7.2287   12.2877 H           1 PFQ       0.0616
     29 H4         17.9978   -9.3995   11.9948 H           1 PFQ       0.0614
     30 H5         15.5845   -9.5611   11.8394 H           1 PFQ       0.0616
     31 H6         14.2206   -7.5940   11.9869 H           1 PFQ       0.0623
     32 H7         17.2496   -2.5284   13.0766 H           1 PFQ       0.0583
     33 H8         19.1582   -1.4574   12.0339 H           1 PFQ       0.0606
     34 H9         19.3756   -1.4433    9.6173 H           1 PFQ       0.0581
     35 H10        17.6978   -2.5275    8.2398 H           1 PFQ       0.0606
     36 H11        15.3161   -1.0476   11.0474 H           1 PFQ       0.1865
     37 H12        15.8117   -3.6400    9.2557 H           1 PFQ       0.0583
     38 H13        12.1070   -0.7763    9.0563 H           1 PFQ       0.0578
     39 H14        12.7652    0.5644    8.1127 H           1 PFQ       0.0578
     40 H15        14.6237   -0.8411    8.8081 H           1 PFQ       0.0549
     41 H16        14.7204    0.7004    9.6822 H           1 PFQ       0.0549
     42 H17        12.5057    1.9259    9.7040 H           1 PFQ       0.2095
@<TRIPOS>BOND
     1    13     1  ar
     2    19     1  ar
     3     2     3   1
     4     2    15   1
     5    21     2   2
     6     3     4  ar
     7     3     8  ar
     8     4     5  ar
     9     5     6  ar
    10     7     6  ar
    11     8     7  ar
    12     9    10  ar
    13    22     9  ar
    14    10    11  ar
    15    12    11  ar
    16    20    12  ar
    17    14    13  ar
    18    14    15   1
    19    16    14  ar
    20    16    18  ar
    21    21    16   1
    22    18    17   1
    23    17    24   1
    24    18    19  ar
    25    22    20  ar
    26    21    22   1
    27    24    23   1
    28    23    25   1
    29     1    26   1
    30     4    27   1
    31     5    28   1
    32     6    29   1
    33     7    30   1
    34     8    31   1
    35     9    32   1
    36    10    33   1
    37    11    34   1
    38    12    35   1
    39    17    36   1
    40    20    37   1
    41    23    38   1
    42    23    39   1
    43    24    40   1
    44    24    41   1
    45    25    42   1
@<TRIPOS>SUBSTRUCTURE
     1  PFQ      1

