@<TRIPOS>MOLECULE
2brb_ligand_005
    42    45
SMALL
GAST_HUCK
****
This file was generated by PARSER (from files_GN.cpp)

@<TRIPOS>ATOM
      1 C2         15.1062    0.8828    9.6724 C.ar        1 PFQ       0.0554
      2 C10        14.4749   -2.6362   12.3762 C.2         1 PFQ       0.1438
      3 C11        13.8619   -3.6143   13.1794 C.ar        1 PFQ       0.0192
      4 C12        13.9369   -3.5615   14.5888 C.ar        1 PFQ      -0.0510
      5 C13        13.2924   -4.5406   15.3753 C.ar        1 PFQ      -0.0615
      6 C14        12.5401   -5.5586   14.7579 C.ar        1 PFQ      -0.0622
      7 C15        12.4515   -5.6111   13.3552 C.ar        1 PFQ      -0.0615
      8 C16        13.1162   -4.6513   12.5717 C.ar        1 PFQ      -0.0510
      9 C19        17.2155   -4.3406   12.4877 C.ar        1 PFQ      -0.0609
     10 C20        18.0343   -5.4799   12.3769 C.ar        1 PFQ      -0.0660
     11 C21        18.0087   -6.2524   11.2002 C.ar        1 PFQ      -0.0660
     12 C22        17.1554   -5.8872   10.1398 C.ar        1 PFQ      -0.0660
     13 N1         14.3088    0.4030   10.6615 N.ar        1 PFQ      -0.2620
     14 C6         14.5951   -0.7988   11.2112 C.ar        1 PFQ       0.2013
     15 O6         13.8741   -1.4441   12.1497 O.3         1 PFQ      -0.2284
     16 C5         15.6884   -1.5744   10.8098 C.ar        1 PFQ       0.0757
     17 N9         17.7492   -1.4685    9.4039 N.pl3       1 PFQ      -0.2984
     18 C4         16.5466   -1.0157    9.8328 C.ar        1 PFQ       0.1260
     19 N3         16.2038    0.1837    9.2772 N.ar        1 PFQ      -0.2686
     20 C17        16.3565   -4.7310   10.2414 C.ar        1 PFQ      -0.0609
     21 C1         15.5886   -2.7725   11.5340 C.2         1 PFQ       0.0223
     22 C18        16.3750   -3.9438   11.4179 C.ar        1 PFQ      -0.0309
     23 C23        19.5516   -0.6491   10.7774 C.3         1 PFQ       0.0648
     24 C8         18.8090   -1.9057   10.2620 C.3         1 PFQ       0.0533
     25 O24        18.6102    0.3825   11.0746 O.3         1 PFQ      -0.3930
     26 H1         14.8922    1.7810    9.2363 H           1 PFQ       0.1000
     27 H2         14.4655   -2.8206   15.0578 H           1 PFQ       0.0623
     28 H3         13.3582   -4.5046   16.3973 H           1 PFQ       0.0616
     29 H4         12.0592   -6.2581   15.3275 H           1 PFQ       0.0614
     30 H5         11.9036   -6.3498   12.9060 H           1 PFQ       0.0616
     31 H6         13.0283   -4.7003   11.5553 H           1 PFQ       0.0623
     32 H7         17.2536   -3.7965   13.3510 H           1 PFQ       0.0583
     33 H8         18.6444   -5.7551   13.1515 H           1 PFQ       0.0606
     34 H9         18.6094   -7.0797   11.1165 H           1 PFQ       0.0581
     35 H10        17.1215   -6.4598    9.2926 H           1 PFQ       0.0606
     36 H11        18.0502   -1.1177    8.5498 H           1 PFQ       0.1865
     37 H12        15.7464   -4.4835    9.4603 H           1 PFQ       0.0583
     38 H13        20.2568   -0.2828   10.0241 H           1 PFQ       0.0578
     39 H14        20.1056   -0.8827   11.6921 H           1 PFQ       0.0578
     40 H15        19.5001   -2.5461    9.7107 H           1 PFQ       0.0549
     41 H16        18.4545   -2.4470   11.1292 H           1 PFQ       0.0549
     42 H17        18.7825    1.0684   10.3950 H           1 PFQ       0.2095
@<TRIPOS>BOND
     1    13     1  ar
     2    19     1  ar
     3     2     3   1
     4     2    15   1
     5    21     2   2
     6     3     4  ar
     7     3     8  ar
     8     4     5  ar
     9     5     6  ar
    10     7     6  ar
    11     8     7  ar
    12     9    10  ar
    13    22     9  ar
    14    10    11  ar
    15    12    11  ar
    16    20    12  ar
    17    14    13  ar
    18    14    15   1
    19    16    14  ar
    20    16    18  ar
    21    21    16   1
    22    18    17   1
    23    17    24   1
    24    18    19  ar
    25    22    20  ar
    26    21    22   1
    27    24    23   1
    28    23    25   1
    29     1    26   1
    30     4    27   1
    31     5    28   1
    32     6    29   1
    33     7    30   1
    34     8    31   1
    35     9    32   1
    36    10    33   1
    37    11    34   1
    38    12    35   1
    39    17    36   1
    40    20    37   1
    41    23    38   1
    42    23    39   1
    43    24    40   1
    44    24    41   1
    45    25    42   1
@<TRIPOS>SUBSTRUCTURE
     1  PFQ      1

