@<TRIPOS>MOLECULE
2brb_ligand_009
    42    45
SMALL
GAST_HUCK
****
This file was generated by PARSER (from files_GN.cpp)

@<TRIPOS>ATOM
      1 C2         20.0524   -3.1183   11.9310 C.ar        1 PFQ       0.0554
      2 C10        16.5952   -5.8915   12.6508 C.2         1 PFQ       0.1438
      3 C11        15.7637   -7.0223   12.7296 C.ar        1 PFQ       0.0192
      4 C12        15.1524   -7.3897   13.9464 C.ar        1 PFQ      -0.0510
      5 C13        14.2726   -8.4897   13.9917 C.ar        1 PFQ      -0.0615
      6 C14        13.9981   -9.2212   12.8212 C.ar        1 PFQ      -0.0622
      7 C15        14.6087   -8.8621   11.6063 C.ar        1 PFQ      -0.0615
      8 C16        15.4864   -7.7624   11.5581 C.ar        1 PFQ      -0.0510
      9 C19        13.9753   -4.1336   13.1510 C.ar        1 PFQ      -0.0609
     10 C20        12.6626   -3.6521   12.9731 C.ar        1 PFQ      -0.0660
     11 C21        12.2499   -3.1882   11.7107 C.ar        1 PFQ      -0.0660
     12 C22        13.1401   -3.2251   10.6223 C.ar        1 PFQ      -0.0660
     13 N1         19.7432   -4.3744   12.3422 N.ar        1 PFQ      -0.2620
     14 C6         18.4444   -4.7570   12.4114 C.ar        1 PFQ       0.2013
     15 O6         17.9448   -5.9692   12.7361 O.3         1 PFQ      -0.2284
     16 C5         17.4024   -3.8851   12.0802 C.ar        1 PFQ       0.0757
     17 N9         16.7819   -1.7185   11.2328 N.pl3       1 PFQ      -0.2984
     18 C4         17.7416   -2.5875   11.6259 C.ar        1 PFQ       0.1260
     19 N3         19.0628   -2.2606   11.5604 N.ar        1 PFQ      -0.2686
     20 C17        14.4448   -3.7213   10.7963 C.ar        1 PFQ      -0.0609
     21 C1         16.2147   -4.6024   12.2514 C.2         1 PFQ       0.0223
     22 C18        14.8836   -4.1614   12.0651 C.ar        1 PFQ      -0.0309
     23 C23        15.4947   -0.3139    9.7228 C.3         1 PFQ       0.0648
     24 C8         16.9022   -0.7479   10.1947 C.3         1 PFQ       0.0533
     25 O24        15.5907    0.7342    8.7666 O.3         1 PFQ      -0.3930
     26 H1         21.0290   -2.8228   11.8836 H           1 PFQ       0.1000
     27 H2         15.3383   -6.8581   14.8039 H           1 PFQ       0.0623
     28 H3         13.8244   -8.7430   14.8727 H           1 PFQ       0.0616
     29 H4         13.3552  -10.0144   12.8553 H           1 PFQ       0.0614
     30 H5         14.4016   -9.3904   10.7542 H           1 PFQ       0.0616
     31 H6         15.9159   -7.5044   10.6633 H           1 PFQ       0.0623
     32 H7         14.2638   -4.4426   14.0827 H           1 PFQ       0.0583
     33 H8         12.0159   -3.6217   13.7664 H           1 PFQ       0.0606
     34 H9         11.3056   -2.8235   11.5847 H           1 PFQ       0.0581
     35 H10        12.8467   -2.8787    9.7094 H           1 PFQ       0.0606
     36 H11        15.8945   -1.8473   11.5943 H           1 PFQ       0.1865
     37 H12        15.0842   -3.7407    9.9975 H           1 PFQ       0.0583
     38 H13        14.9037    0.0388   10.5700 H           1 PFQ       0.0578
     39 H14        14.9744   -1.1611    9.2608 H           1 PFQ       0.0578
     40 H15        17.4346   -1.1815    9.3396 H           1 PFQ       0.0549
     41 H16        17.4673    0.1174   10.5592 H           1 PFQ       0.0549
     42 H17        14.7327    1.2123    8.8150 H           1 PFQ       0.2095
@<TRIPOS>BOND
     1    13     1  ar
     2    19     1  ar
     3     2     3   1
     4     2    15   1
     5    21     2   2
     6     3     4  ar
     7     3     8  ar
     8     4     5  ar
     9     5     6  ar
    10     7     6  ar
    11     8     7  ar
    12     9    10  ar
    13    22     9  ar
    14    10    11  ar
    15    12    11  ar
    16    20    12  ar
    17    14    13  ar
    18    14    15   1
    19    16    14  ar
    20    16    18  ar
    21    21    16   1
    22    18    17   1
    23    17    24   1
    24    18    19  ar
    25    22    20  ar
    26    21    22   1
    27    24    23   1
    28    23    25   1
    29     1    26   1
    30     4    27   1
    31     5    28   1
    32     6    29   1
    33     7    30   1
    34     8    31   1
    35     9    32   1
    36    10    33   1
    37    11    34   1
    38    12    35   1
    39    17    36   1
    40    20    37   1
    41    23    38   1
    42    23    39   1
    43    24    40   1
    44    24    41   1
    45    25    42   1
@<TRIPOS>SUBSTRUCTURE
     1  PFQ      1

