@<TRIPOS>MOLECULE
2brb_ligand_032
    42    45
SMALL
GAST_HUCK
****
This file was generated by PARSER (from files_GN.cpp)

@<TRIPOS>ATOM
      1 C2         13.2875   -9.6986   12.1805 C.ar        1 PFQ       0.0554
      2 C10        16.8898   -7.0113   12.0053 C.2         1 PFQ       0.1438
      3 C11        17.8281   -6.0584   11.5313 C.ar        1 PFQ       0.0192
      4 C12        17.5823   -5.4098   10.2953 C.ar        1 PFQ      -0.0510
      5 C13        18.4573   -4.4247    9.7995 C.ar        1 PFQ      -0.0615
      6 C14        19.5929   -4.0630   10.5425 C.ar        1 PFQ      -0.0622
      7 C15        19.8560   -4.6977   11.7673 C.ar        1 PFQ      -0.0615
      8 C16        18.9741   -5.6756   12.2672 C.ar        1 PFQ      -0.0510
      9 C19        17.9036   -7.3600   15.3226 C.ar        1 PFQ      -0.0609
     10 C20        18.3314   -6.7496   16.5177 C.ar        1 PFQ      -0.0660
     11 C21        17.7455   -5.5408   16.9361 C.ar        1 PFQ      -0.0660
     12 C22        16.7616   -4.9220   16.1442 C.ar        1 PFQ      -0.0660
     13 N1         14.1801   -9.1378   11.3213 N.ar        1 PFQ      -0.2620
     14 C6         15.2067   -8.4077   11.8217 C.ar        1 PFQ       0.2013
     15 O6         16.1112   -7.6894   11.1276 O.3         1 PFQ      -0.2284
     16 C5         15.3863   -8.2061   13.1894 C.ar        1 PFQ       0.0757
     17 N9         14.4977   -8.6929   15.4144 N.pl3       1 PFQ      -0.2984
     18 C4         14.4419   -8.7954   14.0690 C.ar        1 PFQ       0.1260
     19 N3         13.4196   -9.5161   13.5222 N.ar        1 PFQ      -0.2686
     20 C17        16.3377   -5.5270   14.9467 C.ar        1 PFQ      -0.0609
     21 C1         16.4826   -7.3462   13.3119 C.2         1 PFQ       0.0223
     22 C18        16.9143   -6.7452   14.5173 C.ar        1 PFQ      -0.0309
     23 C23        13.9890  -10.5219   16.9655 C.3         1 PFQ       0.0648
     24 C8         15.0876   -9.7633   16.1681 C.3         1 PFQ       0.0533
     25 O24        14.2808  -11.9188   17.0791 O.3         1 PFQ      -0.3930
     26 H1         12.5100  -10.2527   11.8182 H           1 PFQ       0.1000
     27 H2         16.7500   -5.6354    9.7353 H           1 PFQ       0.0623
     28 H3         18.2549   -3.9523    8.9198 H           1 PFQ       0.0616
     29 H4         20.2302   -3.3518   10.1885 H           1 PFQ       0.0614
     30 H5         20.6839   -4.4379   12.3141 H           1 PFQ       0.0616
     31 H6         19.1946   -6.1216   13.1548 H           1 PFQ       0.0623
     32 H7         18.3370   -8.2411   15.0261 H           1 PFQ       0.0583
     33 H8         19.0444   -7.1979   17.0940 H           1 PFQ       0.0606
     34 H9         18.0464   -5.1023   17.8082 H           1 PFQ       0.0581
     35 H10        16.3337   -4.0447   16.4523 H           1 PFQ       0.0606
     36 H11        13.6670   -8.3753   15.8117 H           1 PFQ       0.1865
     37 H12        15.6177   -5.0658   14.3842 H           1 PFQ       0.0583
     38 H13        13.0201  -10.4416   16.4541 H           1 PFQ       0.0578
     39 H14        13.8845  -10.0896   17.9695 H           1 PFQ       0.0578
     40 H15        15.8128   -9.3465   16.8670 H           1 PFQ       0.0549
     41 H16        15.6165  -10.4836   15.5191 H           1 PFQ       0.0549
     42 H17        15.0530  -11.9723   17.7003 H           1 PFQ       0.2095
@<TRIPOS>BOND
     1    13     1  ar
     2    19     1  ar
     3     2     3   1
     4     2    15   1
     5    21     2   2
     6     3     4  ar
     7     3     8  ar
     8     4     5  ar
     9     5     6  ar
    10     7     6  ar
    11     8     7  ar
    12     9    10  ar
    13    22     9  ar
    14    10    11  ar
    15    12    11  ar
    16    20    12  ar
    17    14    13  ar
    18    14    15   1
    19    16    14  ar
    20    16    18  ar
    21    21    16   1
    22    18    17   1
    23    17    24   1
    24    18    19  ar
    25    22    20  ar
    26    21    22   1
    27    24    23   1
    28    23    25   1
    29     1    26   1
    30     4    27   1
    31     5    28   1
    32     6    29   1
    33     7    30   1
    34     8    31   1
    35     9    32   1
    36    10    33   1
    37    11    34   1
    38    12    35   1
    39    17    36   1
    40    20    37   1
    41    23    38   1
    42    23    39   1
    43    24    40   1
    44    24    41   1
    45    25    42   1
@<TRIPOS>SUBSTRUCTURE
     1  PFQ      1

