@<TRIPOS>MOLECULE
2brb_ligand_014
    42    45
SMALL
GAST_HUCK
****
This file was generated by PARSER (from files_GN.cpp)

@<TRIPOS>ATOM
      1 C2         17.5252  -10.1855   13.3480 C.ar        1 PFQ       0.0554
      2 C10        19.2744   -6.2915   11.9631 C.2         1 PFQ       0.1438
      3 C11        20.1304   -5.2019   11.6988 C.ar        1 PFQ       0.0192
      4 C12        21.3230   -5.4014   10.9651 C.ar        1 PFQ      -0.0510
      5 C13        22.1988   -4.3245   10.7239 C.ar        1 PFQ      -0.0615
      6 C14        21.9034   -3.0484   11.2341 C.ar        1 PFQ      -0.0622
      7 C15        20.7264   -2.8442   11.9747 C.ar        1 PFQ      -0.0615
      8 C16        19.8413   -3.9129   12.1993 C.ar        1 PFQ      -0.0510
      9 C19        17.0941   -5.0653    9.9579 C.ar        1 PFQ      -0.0609
     10 C20        16.2237   -4.1143    9.3967 C.ar        1 PFQ      -0.0660
     11 C21        15.2772   -3.4615   10.2064 C.ar        1 PFQ      -0.0660
     12 C22        15.2036   -3.7553   11.5802 C.ar        1 PFQ      -0.0660
     13 N1         18.6991   -9.5280   13.1782 N.ar        1 PFQ      -0.2620
     14 C6         18.6852   -8.2753   12.6659 C.ar        1 PFQ       0.2013
     15 O6         19.7456   -7.4688   12.4403 O.3         1 PFQ      -0.2284
     16 C5         17.4977   -7.6282   12.3201 C.ar        1 PFQ       0.0757
     17 N9         15.0837   -7.7829   12.1634 N.pl3       1 PFQ      -0.2984
     18 C4         16.2802   -8.3308   12.4872 C.ar        1 PFQ       0.1260
     19 N3         16.3512   -9.5910   13.0027 N.ar        1 PFQ      -0.2686
     20 C17        16.0759   -4.7027   12.1465 C.ar        1 PFQ      -0.0609
     21 C1         17.8726   -6.3589   11.8728 C.2         1 PFQ       0.0223
     22 C18        17.0199   -5.3741   11.3346 C.ar        1 PFQ      -0.0309
     23 C23        13.2989   -9.1462   11.0964 C.3         1 PFQ       0.0648
     24 C8         13.7879   -8.3701   12.3519 C.3         1 PFQ       0.0533
     25 O24        13.0026  -10.5104   11.3799 O.3         1 PFQ      -0.3930
     26 H1         17.5224  -11.1201   13.7540 H           1 PFQ       0.1000
     27 H2         21.5550   -6.3261   10.5851 H           1 PFQ       0.0623
     28 H3         23.0455   -4.4692   10.1725 H           1 PFQ       0.0616
     29 H4         22.5393   -2.2683   11.0619 H           1 PFQ       0.0614
     30 H5         20.5152   -1.9182   12.3578 H           1 PFQ       0.0616
     31 H6         19.0013   -3.7453   12.7553 H           1 PFQ       0.0623
     32 H7         17.7617   -5.5471    9.3536 H           1 PFQ       0.0583
     33 H8         16.2678   -3.9121    8.3952 H           1 PFQ       0.0606
     34 H9         14.6392   -2.7774    9.7937 H           1 PFQ       0.0581
     35 H10        14.5095   -3.2858   12.1654 H           1 PFQ       0.0606
     36 H11        15.0947   -6.9110   11.7404 H           1 PFQ       0.1865
     37 H12        16.0092   -4.9096   13.1460 H           1 PFQ       0.0583
     38 H13        14.0676   -9.1324   10.3216 H           1 PFQ       0.0578
     39 H14        12.4031   -8.6795   10.6816 H           1 PFQ       0.0578
     40 H15        13.0966   -7.5403   12.5444 H           1 PFQ       0.0549
     41 H16        13.7664   -9.0035   13.2409 H           1 PFQ       0.0549
     42 H17        12.1716  -10.5049   11.9109 H           1 PFQ       0.2095
@<TRIPOS>BOND
     1    13     1  ar
     2    19     1  ar
     3     2     3   1
     4     2    15   1
     5    21     2   2
     6     3     4  ar
     7     3     8  ar
     8     4     5  ar
     9     5     6  ar
    10     7     6  ar
    11     8     7  ar
    12     9    10  ar
    13    22     9  ar
    14    10    11  ar
    15    12    11  ar
    16    20    12  ar
    17    14    13  ar
    18    14    15   1
    19    16    14  ar
    20    16    18  ar
    21    21    16   1
    22    18    17   1
    23    17    24   1
    24    18    19  ar
    25    22    20  ar
    26    21    22   1
    27    24    23   1
    28    23    25   1
    29     1    26   1
    30     4    27   1
    31     5    28   1
    32     6    29   1
    33     7    30   1
    34     8    31   1
    35     9    32   1
    36    10    33   1
    37    11    34   1
    38    12    35   1
    39    17    36   1
    40    20    37   1
    41    23    38   1
    42    23    39   1
    43    24    40   1
    44    24    41   1
    45    25    42   1
@<TRIPOS>SUBSTRUCTURE
     1  PFQ      1

