@<TRIPOS>MOLECULE
2brb_ligand_025
    42    45
SMALL
GAST_HUCK
****
This file was generated by PARSER (from files_GN.cpp)

@<TRIPOS>ATOM
      1 C2         20.7204   -7.2714   16.7371 C.ar        1 PFQ       0.0554
      2 C10        16.5132   -6.4988   15.4037 C.2         1 PFQ       0.1438
      3 C11        15.2484   -5.8864   15.3067 C.ar        1 PFQ       0.0192
      4 C12        15.1338   -4.5056   15.5943 C.ar        1 PFQ      -0.0510
      5 C13        13.8870   -3.8612   15.5032 C.ar        1 PFQ      -0.0615
      6 C14        12.7430   -4.5911   15.1358 C.ar        1 PFQ      -0.0622
      7 C15        12.8414   -5.9733   14.8831 C.ar        1 PFQ      -0.0615
      8 C16        14.0871   -6.6200   14.9797 C.ar        1 PFQ      -0.0510
      9 C19        15.9849   -7.6748   12.4493 C.ar        1 PFQ      -0.0609
     10 C20        15.7333   -7.6590   11.0648 C.ar        1 PFQ      -0.0660
     11 C21        16.5452   -6.8920   10.2111 C.ar        1 PFQ      -0.0660
     12 C22        17.5906   -6.1155   10.7440 C.ar        1 PFQ      -0.0660
     13 N1         19.4991   -6.8720   17.1655 N.ar        1 PFQ      -0.2620
     14 C6         18.4588   -6.8805   16.3026 C.ar        1 PFQ       0.2013
     15 O6         17.2167   -6.4187   16.5526 O.3         1 PFQ      -0.2284
     16 C5         18.5811   -7.2852   14.9670 C.ar        1 PFQ       0.0757
     17 N9         20.2588   -8.3707   13.4143 N.pl3       1 PFQ      -0.2984
     18 C4         19.8562   -7.7641   14.5562 C.ar        1 PFQ       0.1260
     19 N3         20.8707   -7.7046   15.4598 N.ar        1 PFQ      -0.2686
     20 C17        17.8339   -6.1208   12.1328 C.ar        1 PFQ      -0.0609
     21 C1         17.3413   -6.9943   14.3794 C.2         1 PFQ       0.0223
     22 C18        17.0467   -6.9222   12.9971 C.ar        1 PFQ      -0.0309
     23 C23        18.9646  -10.4690   13.1202 C.3         1 PFQ       0.0648
     24 C8         19.5184   -9.1637   12.4948 C.3         1 PFQ       0.0533
     25 O24        17.5849  -10.3440   13.4373 O.3         1 PFQ      -0.3930
     26 H1         21.5187   -7.2606   17.3731 H           1 PFQ       0.1000
     27 H2         15.9557   -3.9576   15.8618 H           1 PFQ       0.0623
     28 H3         13.8108   -2.8622   15.7075 H           1 PFQ       0.0616
     29 H4         11.8358   -4.1229   15.0651 H           1 PFQ       0.0614
     30 H5         12.0054   -6.5077   14.6421 H           1 PFQ       0.0616
     31 H6         14.1341   -7.6310   14.8309 H           1 PFQ       0.0623
     32 H7         15.4129   -8.2789   13.0423 H           1 PFQ       0.0583
     33 H8         14.9778   -8.2291   10.6796 H           1 PFQ       0.0606
     34 H9         16.3841   -6.9107    9.1998 H           1 PFQ       0.0581
     35 H10        18.1873   -5.5669   10.1206 H           1 PFQ       0.0606
     36 H11        21.2198   -8.4850   13.3498 H           1 PFQ       0.1865
     37 H12        18.6094   -5.5631   12.5001 H           1 PFQ       0.0583
     38 H13        19.5091  -10.7314   14.0345 H           1 PFQ       0.0578
     39 H14        19.0804  -11.2876   12.4128 H           1 PFQ       0.0578
     40 H15        20.2377   -9.4448   11.7256 H           1 PFQ       0.0549
     41 H16        18.7270   -8.6204   11.9941 H           1 PFQ       0.0549
     42 H17        17.3297  -11.2065   13.8329 H           1 PFQ       0.2095
@<TRIPOS>BOND
     1    13     1  ar
     2    19     1  ar
     3     2     3   1
     4     2    15   1
     5    21     2   2
     6     3     4  ar
     7     3     8  ar
     8     4     5  ar
     9     5     6  ar
    10     7     6  ar
    11     8     7  ar
    12     9    10  ar
    13    22     9  ar
    14    10    11  ar
    15    12    11  ar
    16    20    12  ar
    17    14    13  ar
    18    14    15   1
    19    16    14  ar
    20    16    18  ar
    21    21    16   1
    22    18    17   1
    23    17    24   1
    24    18    19  ar
    25    22    20  ar
    26    21    22   1
    27    24    23   1
    28    23    25   1
    29     1    26   1
    30     4    27   1
    31     5    28   1
    32     6    29   1
    33     7    30   1
    34     8    31   1
    35     9    32   1
    36    10    33   1
    37    11    34   1
    38    12    35   1
    39    17    36   1
    40    20    37   1
    41    23    38   1
    42    23    39   1
    43    24    40   1
    44    24    41   1
    45    25    42   1
@<TRIPOS>SUBSTRUCTURE
     1  PFQ      1

