@<TRIPOS>MOLECULE
2brb_ligand_010
    42    45
SMALL
GAST_HUCK
****
This file was generated by PARSER (from files_GN.cpp)

@<TRIPOS>ATOM
      1 C2         11.3550    0.1392   12.7097 C.ar        1 PFQ       0.0554
      2 C10        15.0929   -1.4790   10.7583 C.2         1 PFQ       0.1438
      3 C11        16.2590   -1.5861    9.9369 C.ar        1 PFQ       0.0192
      4 C12        16.7683   -0.4216    9.3006 C.ar        1 PFQ      -0.0510
      5 C13        17.9046   -0.4782    8.4717 C.ar        1 PFQ      -0.0615
      6 C14        18.5714   -1.6989    8.2705 C.ar        1 PFQ      -0.0622
      7 C15        18.0805   -2.8628    8.8876 C.ar        1 PFQ      -0.0615
      8 C16        16.9255   -2.8132    9.6913 C.ar        1 PFQ      -0.0510
      9 C19        16.1931   -2.7033   13.8407 C.ar        1 PFQ      -0.0609
     10 C20        16.9978   -3.6361   14.5223 C.ar        1 PFQ      -0.0660
     11 C21        17.0885   -4.9616   14.0608 C.ar        1 PFQ      -0.0660
     12 C22        16.3428   -5.3619   12.9367 C.ar        1 PFQ      -0.0660
     13 N1         12.1312    0.2523   11.5982 N.ar        1 PFQ      -0.2620
     14 C6         13.2160   -0.5500   11.4544 C.ar        1 PFQ       0.2013
     15 O6         14.1518   -0.5362   10.4843 O.3         1 PFQ      -0.2284
     16 C5         13.5548   -1.5134   12.4043 C.ar        1 PFQ       0.0757
     17 N9         12.9656   -2.5047   14.5486 N.pl3       1 PFQ      -0.2984
     18 C4         12.7410   -1.6104   13.5597 C.ar        1 PFQ       0.1260
     19 N3         11.6810   -0.7623   13.6765 N.ar        1 PFQ      -0.2686
     20 C17        15.5124   -4.4388   12.2734 C.ar        1 PFQ      -0.0609
     21 C1         14.7275   -2.1299   11.9570 C.2         1 PFQ       0.0223
     22 C18        15.4720   -3.0862   12.6846 C.ar        1 PFQ      -0.0309
     23 C23        13.1312   -4.8764   15.2086 C.3         1 PFQ       0.0648
     24 C8         12.3185   -3.7805   14.4894 C.3         1 PFQ       0.0533
     25 O24        12.5214   -6.1559   15.0444 O.3         1 PFQ      -0.3930
     26 H1         10.5354    0.7404   12.8220 H           1 PFQ       0.1000
     27 H2         16.3122    0.4855    9.4441 H           1 PFQ       0.0623
     28 H3         18.2538    0.3706    8.0178 H           1 PFQ       0.0616
     29 H4         19.3991   -1.7492    7.6702 H           1 PFQ       0.0614
     30 H5         18.5594   -3.7566    8.7321 H           1 PFQ       0.0616
     31 H6         16.5524   -3.6936   10.0496 H           1 PFQ       0.0623
     32 H7         16.1408   -1.7453   14.1928 H           1 PFQ       0.0583
     33 H8         17.5211   -3.3523   15.3548 H           1 PFQ       0.0606
     34 H9         17.6877   -5.6360   14.5440 H           1 PFQ       0.0581
     35 H10        16.4145   -6.3227   12.5952 H           1 PFQ       0.0606
     36 H11        12.9534   -2.1236   15.4425 H           1 PFQ       0.1865
     37 H12        14.9452   -4.7580   11.4849 H           1 PFQ       0.0583
     38 H13        13.2115   -4.6469   16.2731 H           1 PFQ       0.0578
     39 H14        14.1349   -4.9297   14.7912 H           1 PFQ       0.0578
     40 H15        12.1525   -4.1022   13.4528 H           1 PFQ       0.0549
     41 H16        11.3491   -3.6767   14.9796 H           1 PFQ       0.0549
     42 H17        12.5680   -6.3356   14.0798 H           1 PFQ       0.2095
@<TRIPOS>BOND
     1    13     1  ar
     2    19     1  ar
     3     2     3   1
     4     2    15   1
     5    21     2   2
     6     3     4  ar
     7     3     8  ar
     8     4     5  ar
     9     5     6  ar
    10     7     6  ar
    11     8     7  ar
    12     9    10  ar
    13    22     9  ar
    14    10    11  ar
    15    12    11  ar
    16    20    12  ar
    17    14    13  ar
    18    14    15   1
    19    16    14  ar
    20    16    18  ar
    21    21    16   1
    22    18    17   1
    23    17    24   1
    24    18    19  ar
    25    22    20  ar
    26    21    22   1
    27    24    23   1
    28    23    25   1
    29     1    26   1
    30     4    27   1
    31     5    28   1
    32     6    29   1
    33     7    30   1
    34     8    31   1
    35     9    32   1
    36    10    33   1
    37    11    34   1
    38    12    35   1
    39    17    36   1
    40    20    37   1
    41    23    38   1
    42    23    39   1
    43    24    40   1
    44    24    41   1
    45    25    42   1
@<TRIPOS>SUBSTRUCTURE
     1  PFQ      1

