@<TRIPOS>MOLECULE
2brb_ligand_020
    42    45
SMALL
GAST_HUCK
****
This file was generated by PARSER (from files_GN.cpp)

@<TRIPOS>ATOM
      1 C2         12.0646   -9.7231   11.3760 C.ar        1 PFQ       0.0554
      2 C10        12.7779   -5.6311   13.0179 C.2         1 PFQ       0.1438
      3 C11        12.6586   -4.2347   13.1522 C.ar        1 PFQ       0.0192
      4 C12        12.7875   -3.6121   14.4096 C.ar        1 PFQ      -0.0510
      5 C13        12.6110   -2.2211   14.5339 C.ar        1 PFQ      -0.0615
      6 C14        12.2865   -1.4452   13.4030 C.ar        1 PFQ      -0.0622
      7 C15        12.1596   -2.0599   12.1468 C.ar        1 PFQ      -0.0615
      8 C16        12.3423   -3.4487   12.0191 C.ar        1 PFQ      -0.0510
      9 C19        16.1037   -6.0761   11.8375 C.ar        1 PFQ      -0.0609
     10 C20        17.4051   -5.5535   11.8328 C.ar        1 PFQ      -0.0660
     11 C21        17.8694   -4.8083   12.9341 C.ar        1 PFQ      -0.0660
     12 C22        17.0286   -4.5968   14.0386 C.ar        1 PFQ      -0.0660
     13 N1         11.4332   -8.5925   11.7715 N.ar        1 PFQ      -0.2620
     14 C6         12.1591   -7.6010   12.3306 C.ar        1 PFQ       0.2013
     15 O6         11.7155   -6.3619   12.6275 O.3         1 PFQ      -0.2284
     16 C5         13.5370   -7.6857   12.5317 C.ar        1 PFQ       0.0757
     17 N9         15.4695   -9.2647   12.2745 N.pl3       1 PFQ      -0.2984
     18 C4         14.1741   -8.8984   12.1406 C.ar        1 PFQ       0.1260
     19 N3         13.4047   -9.8545   11.5496 N.ar        1 PFQ      -0.2686
     20 C17        15.7345   -5.1354   14.0539 C.ar        1 PFQ      -0.0609
     21 C1         13.9426   -6.4131   12.9374 C.2         1 PFQ       0.0223
     22 C18        15.2557   -5.8841   12.9525 C.ar        1 PFQ      -0.0309
     23 C23        17.5810  -10.0185   13.2923 C.3         1 PFQ       0.0648
     24 C8         16.2615   -9.2181   13.4702 C.3         1 PFQ       0.0533
     25 O24        18.6937   -9.3582   13.8872 O.3         1 PFQ      -0.3930
     26 H1         11.5312  -10.4730   10.9448 H           1 PFQ       0.1000
     27 H2         13.0036   -4.1581   15.2495 H           1 PFQ       0.0623
     28 H3         12.7056   -1.7801   15.4480 H           1 PFQ       0.0616
     29 H4         12.1315   -0.4408   13.5006 H           1 PFQ       0.0614
     30 H5         11.9162   -1.5009   11.3247 H           1 PFQ       0.0616
     31 H6         12.2442   -3.8818   11.0950 H           1 PFQ       0.0623
     32 H7         15.7754   -6.5956   11.0157 H           1 PFQ       0.0583
     33 H8         18.0200   -5.7181   11.0315 H           1 PFQ       0.0606
     34 H9         18.8250   -4.4442   12.9381 H           1 PFQ       0.0581
     35 H10        17.3736   -4.0675   14.8478 H           1 PFQ       0.0606
     36 H11        15.7999   -9.8677   11.5920 H           1 PFQ       0.1865
     37 H12        15.1447   -4.9866   14.8785 H           1 PFQ       0.0583
     38 H13        17.8260  -10.1537   12.2395 H           1 PFQ       0.0578
     39 H14        17.4937  -11.0115   13.7367 H           1 PFQ       0.0578
     40 H15        15.6942   -9.6619   14.2887 H           1 PFQ       0.0549
     41 H16        16.4890   -8.1982   13.7503 H           1 PFQ       0.0549
     42 H17        18.5245   -9.3768   14.8517 H           1 PFQ       0.2095
@<TRIPOS>BOND
     1    13     1  ar
     2    19     1  ar
     3     2     3   1
     4     2    15   1
     5    21     2   2
     6     3     4  ar
     7     3     8  ar
     8     4     5  ar
     9     5     6  ar
    10     7     6  ar
    11     8     7  ar
    12     9    10  ar
    13    22     9  ar
    14    10    11  ar
    15    12    11  ar
    16    20    12  ar
    17    14    13  ar
    18    14    15   1
    19    16    14  ar
    20    16    18  ar
    21    21    16   1
    22    18    17   1
    23    17    24   1
    24    18    19  ar
    25    22    20  ar
    26    21    22   1
    27    24    23   1
    28    23    25   1
    29     1    26   1
    30     4    27   1
    31     5    28   1
    32     6    29   1
    33     7    30   1
    34     8    31   1
    35     9    32   1
    36    10    33   1
    37    11    34   1
    38    12    35   1
    39    17    36   1
    40    20    37   1
    41    23    38   1
    42    23    39   1
    43    24    40   1
    44    24    41   1
    45    25    42   1
@<TRIPOS>SUBSTRUCTURE
     1  PFQ      1

