@<TRIPOS>MOLECULE
2brb_ligand_019
    42    45
SMALL
GAST_HUCK
****
This file was generated by PARSER (from files_GN.cpp)

@<TRIPOS>ATOM
      1 C2         10.2354    0.4992   12.6732 C.ar        1 PFQ       0.0554
      2 C10        12.2740   -3.4438   13.2759 C.2         1 PFQ       0.1438
      3 C11        12.6617   -4.7090   13.7529 C.ar        1 PFQ       0.0192
      4 C12        12.5586   -5.8439   12.9209 C.ar        1 PFQ      -0.0510
      5 C13        12.9591   -7.1070   13.3913 C.ar        1 PFQ      -0.0615
      6 C14        13.4713   -7.2422   14.6942 C.ar        1 PFQ      -0.0622
      7 C15        13.5621   -6.1166   15.5351 C.ar        1 PFQ      -0.0615
      8 C16        13.1572   -4.8511   15.0667 C.ar        1 PFQ      -0.0510
      9 C19        15.3951   -2.4423   12.7856 C.ar        1 PFQ      -0.0609
     10 C20        16.7041   -2.7920   12.4120 C.ar        1 PFQ      -0.0660
     11 C21        16.9270   -3.5517   11.2490 C.ar        1 PFQ      -0.0660
     12 C22        15.8356   -3.9854   10.4727 C.ar        1 PFQ      -0.0660
     13 N1         10.1225   -0.7008   13.2849 N.ar        1 PFQ      -0.2620
     14 C6         11.0844   -1.6311   13.0965 C.ar        1 PFQ       0.2013
     15 O6         11.1228   -2.8536   13.6572 O.3         1 PFQ      -0.2284
     16 C5         12.2159   -1.4138   12.2930 C.ar        1 PFQ       0.0757
     17 N9         13.1619    0.3142   10.7002 N.pl3       1 PFQ      -0.2984
     18 C4         12.2870   -0.1591   11.6179 C.ar        1 PFQ       0.1260
     19 N3         11.2898    0.7406   11.8567 N.ar        1 PFQ      -0.2686
     20 C17        14.5254   -3.6521   10.8528 C.ar        1 PFQ      -0.0609
     21 C1         12.9830   -2.5822   12.4278 C.2         1 PFQ       0.0223
     22 C18        14.2971   -2.8584   11.9987 C.ar        1 PFQ      -0.0309
     23 C23        14.8942    0.6047    9.0117 C.3         1 PFQ       0.0648
     24 C8         14.2425   -0.3421   10.0447 C.3         1 PFQ       0.0533
     25 O24        16.1613    0.1304    8.5714 O.3         1 PFQ      -0.3930
     26 H1          9.5225    1.2132   12.8126 H           1 PFQ       0.1000
     27 H2         12.1759   -5.7605   11.9740 H           1 PFQ       0.0623
     28 H3         12.8746   -7.9269   12.7896 H           1 PFQ       0.0616
     29 H4         13.7585   -8.1613   15.0392 H           1 PFQ       0.0614
     30 H5         13.9259   -6.2186   16.4858 H           1 PFQ       0.0616
     31 H6         13.2345   -4.0435   15.6880 H           1 PFQ       0.0623
     32 H7         15.2470   -1.8913   13.6382 H           1 PFQ       0.0583
     33 H8         17.4940   -2.4942   12.9845 H           1 PFQ       0.0606
     34 H9         17.8785   -3.7987   10.9775 H           1 PFQ       0.0581
     35 H10        15.9992   -4.5401    9.6293 H           1 PFQ       0.0606
     36 H11        12.9833    1.2166   10.3820 H           1 PFQ       0.1865
     37 H12        13.7378   -3.9797   10.2864 H           1 PFQ       0.0583
     38 H13        15.0502    1.5888    9.4602 H           1 PFQ       0.0578
     39 H14        14.2384    0.7140    8.1447 H           1 PFQ       0.0578
     40 H15        13.8766   -1.2290    9.5190 H           1 PFQ       0.0549
     41 H16        14.9960   -0.6255   10.7829 H           1 PFQ       0.0549
     42 H17        16.0900   -0.8504    8.5635 H           1 PFQ       0.2095
@<TRIPOS>BOND
     1    13     1  ar
     2    19     1  ar
     3     2     3   1
     4     2    15   1
     5    21     2   2
     6     3     4  ar
     7     3     8  ar
     8     4     5  ar
     9     5     6  ar
    10     7     6  ar
    11     8     7  ar
    12     9    10  ar
    13    22     9  ar
    14    10    11  ar
    15    12    11  ar
    16    20    12  ar
    17    14    13  ar
    18    14    15   1
    19    16    14  ar
    20    16    18  ar
    21    21    16   1
    22    18    17   1
    23    17    24   1
    24    18    19  ar
    25    22    20  ar
    26    21    22   1
    27    24    23   1
    28    23    25   1
    29     1    26   1
    30     4    27   1
    31     5    28   1
    32     6    29   1
    33     7    30   1
    34     8    31   1
    35     9    32   1
    36    10    33   1
    37    11    34   1
    38    12    35   1
    39    17    36   1
    40    20    37   1
    41    23    38   1
    42    23    39   1
    43    24    40   1
    44    24    41   1
    45    25    42   1
@<TRIPOS>SUBSTRUCTURE
     1  PFQ      1

