@<TRIPOS>MOLECULE
2brb_ligand_002
    42    45
SMALL
GAST_HUCK
****
This file was generated by PARSER (from files_GN.cpp)

@<TRIPOS>ATOM
      1 C2         12.0819   -5.0372   12.1449 C.ar        1 PFQ       0.0554
      2 C10        16.5487   -5.2745   12.7719 C.2         1 PFQ       0.1438
      3 C11        17.9369   -4.9482   12.7322 C.ar        1 PFQ       0.0192
      4 C12        18.9708   -5.9161   12.6310 C.ar        1 PFQ      -0.0510
      5 C13        20.3185   -5.5340   12.4390 C.ar        1 PFQ      -0.0615
      6 C14        20.6604   -4.1704   12.3613 C.ar        1 PFQ      -0.0622
      7 C15        19.6591   -3.1912   12.4947 C.ar        1 PFQ      -0.0615
      8 C16        18.3217   -3.5828   12.6725 C.ar        1 PFQ      -0.0510
      9 C19        17.0660   -8.5714   12.4719 C.ar        1 PFQ      -0.0609
     10 C20        17.4886   -9.8550   12.8731 C.ar        1 PFQ      -0.0660
     11 C21        17.1742  -10.3463   14.1573 C.ar        1 PFQ      -0.0660
     12 C22        16.4233   -9.5450   15.0377 C.ar        1 PFQ      -0.0660
     13 N1         13.2011   -4.2789   12.1942 N.ar        1 PFQ      -0.2620
     14 C6         14.3865   -4.8687   12.4690 C.ar        1 PFQ       0.2013
     15 O6         15.6167   -4.3168   12.5020 O.3         1 PFQ      -0.2284
     16 C5         14.4991   -6.2286   12.7288 C.ar        1 PFQ       0.0757
     17 N9         13.4375   -8.3793   12.6315 N.pl3       1 PFQ      -0.2984
     18 C4         13.3276   -7.0234   12.6117 C.ar        1 PFQ       0.1260
     19 N3         12.1557   -6.3765   12.3417 N.ar        1 PFQ      -0.2686
     20 C17        16.0169   -8.2525   14.6475 C.ar        1 PFQ      -0.0609
     21 C1         15.8508   -6.4855   12.9648 C.2         1 PFQ       0.0223
     22 C18        16.3461   -7.7473   13.3636 C.ar        1 PFQ      -0.0309
     23 C23        11.3771   -9.1796   11.2846 C.3         1 PFQ       0.0648
     24 C8         12.7834   -9.4097   11.8585 C.3         1 PFQ       0.0533
     25 O24        10.6548  -10.4021   11.3142 O.3         1 PFQ      -0.3930
     26 H1         11.1786   -4.6077   11.9154 H           1 PFQ       0.1000
     27 H2         18.7740   -6.9166   12.6577 H           1 PFQ       0.0623
     28 H3         21.0537   -6.2297   12.3493 H           1 PFQ       0.0616
     29 H4         21.6340   -3.8805   12.2227 H           1 PFQ       0.0614
     30 H5         19.8967   -2.1941   12.4498 H           1 PFQ       0.0616
     31 H6         17.6178   -2.8388   12.7350 H           1 PFQ       0.0623
     32 H7         17.2372   -8.2712   11.5211 H           1 PFQ       0.0583
     33 H8         18.0224  -10.4426   12.2322 H           1 PFQ       0.0606
     34 H9         17.4707  -11.2803   14.4390 H           1 PFQ       0.0581
     35 H10        16.1626   -9.9135   15.9622 H           1 PFQ       0.0606
     36 H11        14.1513   -8.7246   13.1840 H           1 PFQ       0.1865
     37 H12        15.4521   -7.6962   15.3024 H           1 PFQ       0.0583
     38 H13        11.4468   -8.8370   10.2489 H           1 PFQ       0.0578
     39 H14        10.8257   -8.4322   11.8692 H           1 PFQ       0.0578
     40 H15        12.7956  -10.3204   12.4499 H           1 PFQ       0.0549
     41 H16        13.4496   -9.5663   10.9910 H           1 PFQ       0.0549
     42 H17        10.0994  -10.4127   10.5030 H           1 PFQ       0.2095
@<TRIPOS>BOND
     1    13     1  ar
     2    19     1  ar
     3     2     3   1
     4     2    15   1
     5    21     2   2
     6     3     4  ar
     7     3     8  ar
     8     4     5  ar
     9     5     6  ar
    10     7     6  ar
    11     8     7  ar
    12     9    10  ar
    13    22     9  ar
    14    10    11  ar
    15    12    11  ar
    16    20    12  ar
    17    14    13  ar
    18    14    15   1
    19    16    14  ar
    20    16    18  ar
    21    21    16   1
    22    18    17   1
    23    17    24   1
    24    18    19  ar
    25    22    20  ar
    26    21    22   1
    27    24    23   1
    28    23    25   1
    29     1    26   1
    30     4    27   1
    31     5    28   1
    32     6    29   1
    33     7    30   1
    34     8    31   1
    35     9    32   1
    36    10    33   1
    37    11    34   1
    38    12    35   1
    39    17    36   1
    40    20    37   1
    41    23    38   1
    42    23    39   1
    43    24    40   1
    44    24    41   1
    45    25    42   1
@<TRIPOS>SUBSTRUCTURE
     1  PFQ      1

