@<TRIPOS>MOLECULE
2brb_ligand_034
    42    45
SMALL
GAST_HUCK
****
This file was generated by PARSER (from files_GN.cpp)

@<TRIPOS>ATOM
      1 C2         19.7078   -4.6705   10.2906 C.ar        1 PFQ       0.0554
      2 C10        15.6030   -3.8277   11.9472 C.2         1 PFQ       0.1438
      3 C11        14.4667   -3.7670   12.7761 C.ar        1 PFQ       0.0192
      4 C12        14.0724   -2.5503   13.3823 C.ar        1 PFQ      -0.0510
      5 C13        12.9513   -2.4998   14.2295 C.ar        1 PFQ      -0.0615
      6 C14        12.1939   -3.6593   14.4690 C.ar        1 PFQ      -0.0622
      7 C15        12.5843   -4.8809   13.8780 C.ar        1 PFQ      -0.0615
      8 C16        13.7168   -4.9392   13.0486 C.ar        1 PFQ      -0.0510
      9 C19        15.5488   -0.6728   10.0817 C.ar        1 PFQ      -0.0609
     10 C20        14.6790    0.2941    9.5441 C.ar        1 PFQ      -0.0660
     11 C21        13.3521   -0.0509    9.2258 C.ar        1 PFQ      -0.0660
     12 C22        12.8851   -1.3549    9.4681 C.ar        1 PFQ      -0.0660
     13 N1         18.7988   -5.0885   11.2181 N.ar        1 PFQ      -0.2620
     14 C6         17.5987   -4.4569   11.3040 C.ar        1 PFQ       0.2013
     15 O6         16.5956   -4.7192   12.1689 O.3         1 PFQ      -0.2284
     16 C5         17.2542   -3.3719   10.4828 C.ar        1 PFQ       0.0757
     17 N9         18.0207   -1.8540    8.7609 N.pl3       1 PFQ      -0.2984
     18 C4         18.2248   -2.9351    9.5395 C.ar        1 PFQ       0.1260
     19 N3         19.4220   -3.5924    9.4965 N.ar        1 PFQ      -0.2686
     20 C17        13.7553   -2.3212   10.0025 C.ar        1 PFQ      -0.0609
     21 C1         15.9585   -2.9810   10.8781 C.2         1 PFQ       0.0223
     22 C18        15.1007   -1.9976   10.3025 C.ar        1 PFQ      -0.0309
     23 C23        19.9855   -0.6119    9.6284 C.3         1 PFQ       0.0648
     24 C8         18.9708   -0.8143    8.4793 C.3         1 PFQ       0.0533
     25 O24        19.4065    0.0191   10.7776 O.3         1 PFQ      -0.3930
     26 H1         20.6126   -5.1310   10.2196 H           1 PFQ       0.1000
     27 H2         14.6139   -1.6948   13.2358 H           1 PFQ       0.0623
     28 H3         12.6799   -1.6213   14.6692 H           1 PFQ       0.0616
     29 H4         11.3763   -3.6207   15.0700 H           1 PFQ       0.0614
     30 H5         12.0381   -5.7270   14.0615 H           1 PFQ       0.0616
     31 H6         13.9825   -5.8321   12.6310 H           1 PFQ       0.0623
     32 H7         16.4981   -0.4042   10.3297 H           1 PFQ       0.0583
     33 H8         15.0099    1.2435    9.3817 H           1 PFQ       0.0606
     34 H9         12.7229    0.6433    8.8283 H           1 PFQ       0.0581
     35 H10        11.9199   -1.6032    9.2495 H           1 PFQ       0.0606
     36 H11        17.1165   -1.6964    8.4519 H           1 PFQ       0.1865
     37 H12        13.3984   -3.2659   10.1792 H           1 PFQ       0.0583
     38 H13        20.8307    0.0040    9.2721 H           1 PFQ       0.0578
     39 H14        20.3884   -1.5941    9.9126 H           1 PFQ       0.0578
     40 H15        18.4097    0.1171    8.3360 H           1 PFQ       0.0549
     41 H16        19.4926   -1.0429    7.5377 H           1 PFQ       0.0549
     42 H17        18.6626   -0.5817   11.0380 H           1 PFQ       0.2095
@<TRIPOS>BOND
     1    13     1  ar
     2    19     1  ar
     3     2     3   1
     4     2    15   1
     5    21     2   2
     6     3     4  ar
     7     3     8  ar
     8     4     5  ar
     9     5     6  ar
    10     7     6  ar
    11     8     7  ar
    12     9    10  ar
    13    22     9  ar
    14    10    11  ar
    15    12    11  ar
    16    20    12  ar
    17    14    13  ar
    18    14    15   1
    19    16    14  ar
    20    16    18  ar
    21    21    16   1
    22    18    17   1
    23    17    24   1
    24    18    19  ar
    25    22    20  ar
    26    21    22   1
    27    24    23   1
    28    23    25   1
    29     1    26   1
    30     4    27   1
    31     5    28   1
    32     6    29   1
    33     7    30   1
    34     8    31   1
    35     9    32   1
    36    10    33   1
    37    11    34   1
    38    12    35   1
    39    17    36   1
    40    20    37   1
    41    23    38   1
    42    23    39   1
    43    24    40   1
    44    24    41   1
    45    25    42   1
@<TRIPOS>SUBSTRUCTURE
     1  PFQ      1

