@<TRIPOS>MOLECULE
2brb_ligand_035
    42    45
SMALL
GAST_HUCK
****
This file was generated by PARSER (from files_GN.cpp)

@<TRIPOS>ATOM
      1 C2         13.7330  -11.0532   18.5841 C.ar        1 PFQ       0.0554
      2 C10        14.3497   -8.8198   14.7324 C.2         1 PFQ       0.1438
      3 C11        14.6767   -8.4773   13.4015 C.ar        1 PFQ       0.0192
      4 C12        15.6621   -7.4971   13.1082 C.ar        1 PFQ      -0.0510
      5 C13        16.0389   -7.2203   11.7870 C.ar        1 PFQ      -0.0615
      6 C14        15.4544   -7.9349   10.7292 C.ar        1 PFQ      -0.0622
      7 C15        14.4930   -8.9315   11.0021 C.ar        1 PFQ      -0.0615
      8 C16        14.1128   -9.2049   12.3258 C.ar        1 PFQ      -0.0510
      9 C19        13.2651   -5.8566   15.5747 C.ar        1 PFQ      -0.0609
     10 C20        13.2929   -4.4481   15.6017 C.ar        1 PFQ      -0.0660
     11 C21        14.4727   -3.7761   15.9763 C.ar        1 PFQ      -0.0660
     12 C22        15.6141   -4.5118   16.3382 C.ar        1 PFQ      -0.0660
     13 N1         13.7415  -11.2149   17.2336 N.ar        1 PFQ      -0.2620
     14 C6         13.9571  -10.1390   16.4383 C.ar        1 PFQ       0.2013
     15 O6         14.0782  -10.1022   15.0957 O.3         1 PFQ      -0.2284
     16 C5         14.1585   -8.8623   16.9686 C.ar        1 PFQ       0.0757
     17 N9         14.4860   -7.5199   18.9247 N.pl3       1 PFQ      -0.2984
     18 C4         14.1674   -8.7114   18.3716 C.ar        1 PFQ       0.1260
     19 N3         13.9666   -9.8267   19.1259 N.ar        1 PFQ      -0.2686
     20 C17        15.5837   -5.9194   16.3232 C.ar        1 PFQ      -0.0609
     21 C1         14.3543   -8.0106   15.8849 C.2         1 PFQ       0.0223
     22 C18        14.4087   -6.6033   15.9316 C.ar        1 PFQ      -0.0309
     23 C23        16.7289   -6.8033   19.4117 C.3         1 PFQ       0.0648
     24 C8         15.3824   -7.3096   20.0080 C.3         1 PFQ       0.0533
     25 O24        16.6410   -5.4443   18.9652 O.3         1 PFQ      -0.3930
     26 H1         13.5735  -11.8557   19.1896 H           1 PFQ       0.1000
     27 H2         16.1572   -7.0048   13.8537 H           1 PFQ       0.0623
     28 H3         16.7544   -6.5144   11.5919 H           1 PFQ       0.0616
     29 H4         15.7340   -7.7339    9.7659 H           1 PFQ       0.0614
     30 H5         14.0812   -9.4654   10.2383 H           1 PFQ       0.0616
     31 H6         13.4212   -9.9408   12.4995 H           1 PFQ       0.0623
     32 H7         12.3962   -6.3224   15.2927 H           1 PFQ       0.0583
     33 H8         12.4641   -3.9106   15.3421 H           1 PFQ       0.0606
     34 H9         14.4990   -2.7528   15.9956 H           1 PFQ       0.0581
     35 H10        16.4753   -4.0261   16.6024 H           1 PFQ       0.0606
     36 H11        14.2496   -6.7227   18.4331 H           1 PFQ       0.1865
     37 H12        16.4187   -6.4464   16.5851 H           1 PFQ       0.0583
     38 H13        17.0123   -7.4150   18.5529 H           1 PFQ       0.0578
     39 H14        17.5407   -6.8938   20.1473 H           1 PFQ       0.0578
     40 H15        15.5538   -8.2123   20.5933 H           1 PFQ       0.0549
     41 H16        14.9591   -6.5490   20.6641 H           1 PFQ       0.0549
     42 H17        16.6537   -4.8994   19.7835 H           1 PFQ       0.2095
@<TRIPOS>BOND
     1    13     1  ar
     2    19     1  ar
     3     2     3   1
     4     2    15   1
     5    21     2   2
     6     3     4  ar
     7     3     8  ar
     8     4     5  ar
     9     5     6  ar
    10     7     6  ar
    11     8     7  ar
    12     9    10  ar
    13    22     9  ar
    14    10    11  ar
    15    12    11  ar
    16    20    12  ar
    17    14    13  ar
    18    14    15   1
    19    16    14  ar
    20    16    18  ar
    21    21    16   1
    22    18    17   1
    23    17    24   1
    24    18    19  ar
    25    22    20  ar
    26    21    22   1
    27    24    23   1
    28    23    25   1
    29     1    26   1
    30     4    27   1
    31     5    28   1
    32     6    29   1
    33     7    30   1
    34     8    31   1
    35     9    32   1
    36    10    33   1
    37    11    34   1
    38    12    35   1
    39    17    36   1
    40    20    37   1
    41    23    38   1
    42    23    39   1
    43    24    40   1
    44    24    41   1
    45    25    42   1
@<TRIPOS>SUBSTRUCTURE
     1  PFQ      1

