@<TRIPOS>MOLECULE
2brb_ligand_030
    42    45
SMALL
GAST_HUCK
****
This file was generated by PARSER (from files_GN.cpp)

@<TRIPOS>ATOM
      1 C2         16.9649   -7.4275   11.4232 C.ar        1 PFQ       0.0554
      2 C10        15.7747   -3.1658   10.5089 C.2         1 PFQ       0.1438
      3 C11        14.9563   -2.0561   10.1333 C.ar        1 PFQ       0.0192
      4 C12        15.4565   -0.7573    9.8549 C.ar        1 PFQ      -0.0510
      5 C13        14.6089    0.2889    9.4417 C.ar        1 PFQ      -0.0615
      6 C14        13.2304    0.0593    9.2772 C.ar        1 PFQ      -0.0622
      7 C15        12.7040   -1.2196    9.5255 C.ar        1 PFQ      -0.0615
      8 C16        13.5542   -2.2478    9.9637 C.ar        1 PFQ      -0.0510
      9 C19        18.4396   -1.3045   10.9482 C.ar        1 PFQ      -0.0609
     10 C20        19.4452   -0.3971   10.5614 C.ar        1 PFQ      -0.0660
     11 C21        20.2543   -0.6765    9.4453 C.ar        1 PFQ      -0.0660
     12 C22        20.0640   -1.8654    8.7173 C.ar        1 PFQ      -0.0660
     13 N1         15.8963   -6.6027   11.3118 N.ar        1 PFQ      -0.2620
     14 C6         16.1011   -5.2882   11.0501 C.ar        1 PFQ       0.2013
     15 O6         15.1708   -4.3446   10.8230 O.3         1 PFQ      -0.2284
     16 C5         17.3703   -4.7310   10.9035 C.ar        1 PFQ       0.0757
     17 N9         19.7854   -5.2916   11.0398 N.pl3       1 PFQ      -0.2984
     18 C4         18.4774   -5.6116   11.0500 C.ar        1 PFQ       0.1260
     19 N3         18.2214   -6.9312   11.2779 N.ar        1 PFQ      -0.2686
     20 C17        19.0561   -2.7705    9.1028 C.ar        1 PFQ      -0.0609
     21 C1         17.1761   -3.3846   10.5580 C.2         1 PFQ       0.0223
     22 C18        18.2143   -2.4880   10.2022 C.ar        1 PFQ      -0.0309
     23 C23        21.6852   -4.0873   12.0525 C.3         1 PFQ       0.0648
     24 C8         20.5012   -5.0449   12.2520 C.3         1 PFQ       0.0533
     25 O24        22.4606   -4.4237   10.9042 O.3         1 PFQ      -0.3930
     26 H1         16.8407   -8.4233   11.6186 H           1 PFQ       0.1000
     27 H2         16.4513   -0.5583    9.9117 H           1 PFQ       0.0623
     28 H3         14.9878    1.2107    9.2225 H           1 PFQ       0.0616
     29 H4         12.6115    0.8083    8.9571 H           1 PFQ       0.0614
     30 H5         11.7136   -1.4014    9.3693 H           1 PFQ       0.0616
     31 H6         13.1277   -3.1606   10.1301 H           1 PFQ       0.0623
     32 H7         17.8867   -1.1099   11.7865 H           1 PFQ       0.0583
     33 H8         19.5955    0.4625   11.0987 H           1 PFQ       0.0606
     34 H9         20.9743   -0.0138    9.1521 H           1 PFQ       0.0581
     35 H10        20.6499   -2.0669    7.8992 H           1 PFQ       0.0606
     36 H11        20.3086   -5.7862   10.3827 H           1 PFQ       0.1865
     37 H12        18.9251   -3.6274    8.5637 H           1 PFQ       0.0583
     38 H13        22.3441   -4.1471   12.9220 H           1 PFQ       0.0578
     39 H14        21.3368   -3.0571   11.9602 H           1 PFQ       0.0578
     40 H15        20.9171   -6.0211   12.5598 H           1 PFQ       0.0549
     41 H16        19.8698   -4.7017   13.0683 H           1 PFQ       0.0549
     42 H17        21.9388   -4.1214   10.1323 H           1 PFQ       0.2095
@<TRIPOS>BOND
     1    13     1  ar
     2    19     1  ar
     3     2     3   1
     4     2    15   1
     5    21     2   2
     6     3     4  ar
     7     3     8  ar
     8     4     5  ar
     9     5     6  ar
    10     7     6  ar
    11     8     7  ar
    12     9    10  ar
    13    22     9  ar
    14    10    11  ar
    15    12    11  ar
    16    20    12  ar
    17    14    13  ar
    18    14    15   1
    19    16    14  ar
    20    16    18  ar
    21    21    16   1
    22    18    17   1
    23    17    24   1
    24    18    19  ar
    25    22    20  ar
    26    21    22   1
    27    24    23   1
    28    23    25   1
    29     1    26   1
    30     4    27   1
    31     5    28   1
    32     6    29   1
    33     7    30   1
    34     8    31   1
    35     9    32   1
    36    10    33   1
    37    11    34   1
    38    12    35   1
    39    17    36   1
    40    20    37   1
    41    23    38   1
    42    23    39   1
    43    24    40   1
    44    24    41   1
    45    25    42   1
@<TRIPOS>SUBSTRUCTURE
     1  PFQ      1

