@<TRIPOS>MOLECULE
2brb_ligand_008
    42    45
SMALL
GAST_HUCK
****
This file was generated by PARSER (from files_GN.cpp)

@<TRIPOS>ATOM
      1 C2         12.2368   -9.4149   11.6205 C.ar        1 PFQ       0.0554
      2 C10        16.5830   -8.3967   12.1587 C.2         1 PFQ       0.1438
      3 C11        18.0048   -8.4467   12.0797 C.ar        1 PFQ       0.0192
      4 C12        18.7936   -7.3376   11.6847 C.ar        1 PFQ      -0.0510
      5 C13        20.1933   -7.4353   11.5896 C.ar        1 PFQ      -0.0615
      6 C14        20.8332   -8.6543   11.8671 C.ar        1 PFQ      -0.0622
      7 C15        20.0691   -9.7744   12.2333 C.ar        1 PFQ      -0.0615
      8 C16        18.6686   -9.6725   12.3347 C.ar        1 PFQ      -0.0510
      9 C19        16.7285   -5.6308   13.8761 C.ar        1 PFQ      -0.0609
     10 C20        17.1042   -4.2927   14.0955 C.ar        1 PFQ      -0.0660
     11 C21        16.8770   -3.3254   13.0983 C.ar        1 PFQ      -0.0660
     12 C22        16.2750   -3.6931   11.8806 C.ar        1 PFQ      -0.0660
     13 N1         13.4884   -9.9268   11.5637 N.ar        1 PFQ      -0.2620
     14 C6         14.5381   -9.1418   11.9071 C.ar        1 PFQ       0.2013
     15 O6         15.8414   -9.4847   11.8442 O.3         1 PFQ      -0.2284
     16 C5         14.3935   -7.8112   12.3221 C.ar        1 PFQ       0.0757
     17 N9         12.5656   -6.1455   12.9221 N.pl3       1 PFQ      -0.2984
     18 C4         13.0637   -7.3135   12.4394 C.ar        1 PFQ       0.1260
     19 N3         12.0507   -8.1408   12.0537 N.ar        1 PFQ      -0.2686
     20 C17        15.8842   -5.0257   11.6645 C.ar        1 PFQ      -0.0609
     21 C1         15.7054   -7.3305   12.4412 C.2         1 PFQ       0.0223
     22 C18        16.0912   -5.9988   12.6710 C.ar        1 PFQ      -0.0309
     23 C23        12.9900   -5.8452   15.3319 C.3         1 PFQ       0.0648
     24 C8         13.0848   -5.2527   13.9111 C.3         1 PFQ       0.0533
     25 O24        13.9515   -6.8729   15.5469 O.3         1 PFQ      -0.3930
     26 H1         11.4377   -9.9868   11.3524 H           1 PFQ       0.1000
     27 H2         18.3626   -6.4535   11.4132 H           1 PFQ       0.0623
     28 H3         20.7457   -6.6239   11.3004 H           1 PFQ       0.0616
     29 H4         21.8486   -8.7255   11.7941 H           1 PFQ       0.0614
     30 H5         20.5303  -10.6648   12.4325 H           1 PFQ       0.0616
     31 H6         18.1377  -10.5036   12.6079 H           1 PFQ       0.0623
     32 H7         16.9016   -6.3255   14.6088 H           1 PFQ       0.0583
     33 H8         17.5463   -4.0239   14.9755 H           1 PFQ       0.0606
     34 H9         17.1497   -2.3528   13.2571 H           1 PFQ       0.0581
     35 H10        16.1203   -2.9924   11.1552 H           1 PFQ       0.0606
     36 H11        11.6169   -6.0343   12.7741 H           1 PFQ       0.1865
     37 H12        15.4515   -5.2793   10.7733 H           1 PFQ       0.0583
     38 H13        11.9833   -6.2453   15.4774 H           1 PFQ       0.0578
     39 H14        13.1638   -5.0579   16.0716 H           1 PFQ       0.0578
     40 H15        12.4643   -4.3483   13.8890 H           1 PFQ       0.0549
     41 H16        14.0971   -4.9204   13.7049 H           1 PFQ       0.0549
     42 H17        13.5113   -7.4694   16.1949 H           1 PFQ       0.2095
@<TRIPOS>BOND
     1    13     1  ar
     2    19     1  ar
     3     2     3   1
     4     2    15   1
     5    21     2   2
     6     3     4  ar
     7     3     8  ar
     8     4     5  ar
     9     5     6  ar
    10     7     6  ar
    11     8     7  ar
    12     9    10  ar
    13    22     9  ar
    14    10    11  ar
    15    12    11  ar
    16    20    12  ar
    17    14    13  ar
    18    14    15   1
    19    16    14  ar
    20    16    18  ar
    21    21    16   1
    22    18    17   1
    23    17    24   1
    24    18    19  ar
    25    22    20  ar
    26    21    22   1
    27    24    23   1
    28    23    25   1
    29     1    26   1
    30     4    27   1
    31     5    28   1
    32     6    29   1
    33     7    30   1
    34     8    31   1
    35     9    32   1
    36    10    33   1
    37    11    34   1
    38    12    35   1
    39    17    36   1
    40    20    37   1
    41    23    38   1
    42    23    39   1
    43    24    40   1
    44    24    41   1
    45    25    42   1
@<TRIPOS>SUBSTRUCTURE
     1  PFQ      1

