@<TRIPOS>MOLECULE
2brb_ligand_004
    42    45
SMALL
GAST_HUCK
****
This file was generated by PARSER (from files_GN.cpp)

@<TRIPOS>ATOM
      1 C2         16.2640   -1.2806    8.0831 C.ar        1 PFQ       0.0554
      2 C10        17.9216   -5.0104    9.9832 C.2         1 PFQ       0.1438
      3 C11        17.9480   -6.2386   10.7305 C.ar        1 PFQ       0.0192
      4 C12        19.0933   -6.7519   11.3910 C.ar        1 PFQ      -0.0510
      5 C13        19.0281   -7.9263   12.1639 C.ar        1 PFQ      -0.0615
      6 C14        17.8046   -8.5957   12.3322 C.ar        1 PFQ      -0.0622
      7 C15        16.6590   -8.1253   11.6725 C.ar        1 PFQ      -0.0615
      8 C16        16.7315   -6.9606   10.8899 C.ar        1 PFQ      -0.0510
      9 C19        20.5726   -3.7912   11.4845 C.ar        1 PFQ      -0.0609
     10 C20        21.9076   -3.8936   11.9107 C.ar        1 PFQ      -0.0660
     11 C21        22.9220   -4.2493   10.9963 C.ar        1 PFQ      -0.0660
     12 C22        22.5908   -4.5004    9.6516 C.ar        1 PFQ      -0.0660
     13 N1         15.9418   -2.5345    8.4825 N.ar        1 PFQ      -0.2620
     14 C6         16.9168   -3.3417    8.9533 C.ar        1 PFQ       0.2013
     15 O6         16.7422   -4.5515    9.5015 O.3         1 PFQ      -0.2284
     16 C5         18.2550   -2.9672    9.0449 C.ar        1 PFQ       0.0757
     17 N9         19.7476   -1.0048    8.5364 N.pl3       1 PFQ      -0.2984
     18 C4         18.5587   -1.6456    8.6027 C.ar        1 PFQ       0.1260
     19 N3         17.5514   -0.8498    8.1537 N.ar        1 PFQ      -0.2686
     20 C17        21.2576   -4.3779    9.2176 C.ar        1 PFQ      -0.0609
     21 C1         18.8982   -4.0273    9.6968 C.2         1 PFQ       0.0223
     22 C18        20.2378   -4.0386   10.1296 C.ar        1 PFQ      -0.0309
     23 C23        21.6807   -0.0539    7.4132 C.3         1 PFQ       0.0648
     24 C8         20.8356   -1.3434    7.6580 C.3         1 PFQ       0.0533
     25 O24        22.9523   -0.3677    6.8227 O.3         1 PFQ      -0.3930
     26 H1         15.5486   -0.6354    7.7337 H           1 PFQ       0.1000
     27 H2         19.9947   -6.3067   11.2876 H           1 PFQ       0.0623
     28 H3         19.8585   -8.2678   12.6388 H           1 PFQ       0.0616
     29 H4         17.7540   -9.4411   12.9084 H           1 PFQ       0.0614
     30 H5         15.7661   -8.6120   11.7904 H           1 PFQ       0.0616
     31 H6         15.8662   -6.6501   10.4387 H           1 PFQ       0.0623
     32 H7         19.8484   -3.5370   12.1568 H           1 PFQ       0.0583
     33 H8         22.1503   -3.7188   12.8866 H           1 PFQ       0.0606
     34 H9         23.8887   -4.3313   11.3155 H           1 PFQ       0.0581
     35 H10        23.3268   -4.7761    8.9945 H           1 PFQ       0.0606
     36 H11        19.7178   -0.0596    8.7894 H           1 PFQ       0.1865
     37 H12        21.0466   -4.5666    8.2297 H           1 PFQ       0.0583
     38 H13        21.8388    0.4395    8.3851 H           1 PFQ       0.0578
     39 H14        21.1358    0.6341    6.7410 H           1 PFQ       0.0578
     40 H15        20.4548   -1.6956    6.6857 H           1 PFQ       0.0549
     41 H16        21.4760   -2.1177    8.1191 H           1 PFQ       0.0549
     42 H17        22.7193   -0.8540    6.0020 H           1 PFQ       0.2095
@<TRIPOS>BOND
     1    13     1  ar
     2    19     1  ar
     3     2     3   1
     4     2    15   1
     5    21     2   2
     6     3     4  ar
     7     3     8  ar
     8     4     5  ar
     9     5     6  ar
    10     7     6  ar
    11     8     7  ar
    12     9    10  ar
    13    22     9  ar
    14    10    11  ar
    15    12    11  ar
    16    20    12  ar
    17    14    13  ar
    18    14    15   1
    19    16    14  ar
    20    16    18  ar
    21    21    16   1
    22    18    17   1
    23    17    24   1
    24    18    19  ar
    25    22    20  ar
    26    21    22   1
    27    24    23   1
    28    23    25   1
    29     1    26   1
    30     4    27   1
    31     5    28   1
    32     6    29   1
    33     7    30   1
    34     8    31   1
    35     9    32   1
    36    10    33   1
    37    11    34   1
    38    12    35   1
    39    17    36   1
    40    20    37   1
    41    23    38   1
    42    23    39   1
    43    24    40   1
    44    24    41   1
    45    25    42   1
@<TRIPOS>SUBSTRUCTURE
     1  PFQ      1

