@<TRIPOS>MOLECULE
2brb_ligand_033
    42    45
SMALL
GAST_HUCK
****
This file was generated by PARSER (from files_GN.cpp)

@<TRIPOS>ATOM
      1 C2         15.4263  -10.7488   16.5275 C.ar        1 PFQ       0.0554
      2 C10        18.6705   -8.3568   14.5073 C.2         1 PFQ       0.1438
      3 C11        19.9249   -7.6775   14.3291 C.ar        1 PFQ       0.0192
      4 C12        20.2607   -6.9202   13.1768 C.ar        1 PFQ      -0.0510
      5 C13        21.4827   -6.2309   13.0830 C.ar        1 PFQ      -0.0615
      6 C14        22.4196   -6.3061   14.1262 C.ar        1 PFQ      -0.0622
      7 C15        22.1280   -7.0710   15.2677 C.ar        1 PFQ      -0.0615
      8 C16        20.8947   -7.7393   15.3672 C.ar        1 PFQ      -0.0510
      9 C19        17.0115   -5.9455   13.1202 C.ar        1 PFQ      -0.0609
     10 C20        16.6741   -5.0425   12.0950 C.ar        1 PFQ      -0.0660
     11 C21        16.4163   -5.5141   10.7931 C.ar        1 PFQ      -0.0660
     12 C22        16.5349   -6.8871   10.5098 C.ar        1 PFQ      -0.0660
     13 N1         16.7530  -10.4834   16.5257 N.ar        1 PFQ      -0.2620
     14 C6         17.2634   -9.6602   15.5770 C.ar        1 PFQ       0.2013
     15 O6         18.5384   -9.2424   15.5226 O.3         1 PFQ      -0.2284
     16 C5         16.4947   -9.0614   14.5717 C.ar        1 PFQ       0.0757
     17 N9         14.1039   -9.1273   13.7128 N.pl3       1 PFQ      -0.2984
     18 C4         15.1103   -9.3976   14.5775 C.ar        1 PFQ       0.1260
     19 N3         14.6409  -10.2042   15.5692 N.ar        1 PFQ      -0.2686
     20 C17        16.8526   -7.7899   11.5395 C.ar        1 PFQ      -0.0609
     21 C1         17.4074   -8.2397   13.8813 C.2         1 PFQ       0.0223
     22 C18        17.0790   -7.3299   12.8543 C.ar        1 PFQ      -0.0309
     23 C23        12.8101   -9.2001   11.6685 C.3         1 PFQ       0.0648
     24 C8         14.1704   -8.8391   12.3147 C.3         1 PFQ       0.0533
     25 O24        12.4252  -10.5425   11.9430 O.3         1 PFQ      -0.3930
     26 H1         15.0262  -11.3715   17.2331 H           1 PFQ       0.1000
     27 H2         19.6283   -6.8706   12.3769 H           1 PFQ       0.0623
     28 H3         21.7024   -5.6868   12.2419 H           1 PFQ       0.0616
     29 H4         23.3150   -5.8186   14.0544 H           1 PFQ       0.0614
     30 H5         22.8083   -7.1314   16.0246 H           1 PFQ       0.0616
     31 H6         20.7187   -8.2886   16.2143 H           1 PFQ       0.0623
     32 H7         17.2272   -5.5822   14.0543 H           1 PFQ       0.0583
     33 H8         16.6109   -4.0393   12.2997 H           1 PFQ       0.0606
     34 H9         16.1244   -4.8615   10.0639 H           1 PFQ       0.0581
     35 H10        16.3657   -7.2258    9.5617 H           1 PFQ       0.0606
     36 H11        13.2196   -9.4165   14.0250 H           1 PFQ       0.1865
     37 H12        16.9643   -8.7808   11.3170 H           1 PFQ       0.0583
     38 H13        12.8651   -9.0709   10.5835 H           1 PFQ       0.0578
     39 H14        12.0358   -8.5273   12.0572 H           1 PFQ       0.0578
     40 H15        14.9463   -9.4404   11.8332 H           1 PFQ       0.0549
     41 H16        14.3871   -7.7826   12.1719 H           1 PFQ       0.0549
     42 H17        11.5181  -10.6337   11.5878 H           1 PFQ       0.2095
@<TRIPOS>BOND
     1    13     1  ar
     2    19     1  ar
     3     2     3   1
     4     2    15   1
     5    21     2   2
     6     3     4  ar
     7     3     8  ar
     8     4     5  ar
     9     5     6  ar
    10     7     6  ar
    11     8     7  ar
    12     9    10  ar
    13    22     9  ar
    14    10    11  ar
    15    12    11  ar
    16    20    12  ar
    17    14    13  ar
    18    14    15   1
    19    16    14  ar
    20    16    18  ar
    21    21    16   1
    22    18    17   1
    23    17    24   1
    24    18    19  ar
    25    22    20  ar
    26    21    22   1
    27    24    23   1
    28    23    25   1
    29     1    26   1
    30     4    27   1
    31     5    28   1
    32     6    29   1
    33     7    30   1
    34     8    31   1
    35     9    32   1
    36    10    33   1
    37    11    34   1
    38    12    35   1
    39    17    36   1
    40    20    37   1
    41    23    38   1
    42    23    39   1
    43    24    40   1
    44    24    41   1
    45    25    42   1
@<TRIPOS>SUBSTRUCTURE
     1  PFQ      1

