@<TRIPOS>MOLECULE
2cbj_ligand_027
    44    45
SMALL
GAST_HUCK
****
This file was generated by PARSER (from files_GN.cpp)

@<TRIPOS>ATOM
      1 CAH        25.5098   44.3177   21.1793 C.3         1 OAN       0.0258
      2 CAG        26.0935   43.0533   20.8032 C.2         1 OAN       0.1755
      3 OAN        25.3493   42.1658   20.4039 O.2         1 OAN      -0.3972
      4 NAI        27.4110   42.9082   20.8217 N.am        1 OAN      -0.2641
      5 CAB        28.1720   41.7507   20.4380 C.3         1 OAN       0.1483
      6 CAC        29.6807   42.0063   20.7493 C.3         1 OAN       0.1223
      7 OAJ        29.8970   42.1013   22.1600 O.3         1 OAN      -0.3842
      8 CAD        30.6128   40.8913   20.1849 C.3         1 OAN       0.1187
      9 OAK        31.9776   41.3216   20.2250 O.3         1 OAN      -0.3859
     10 CAE        30.1979   40.5123   18.7280 C.3         1 OAN       0.1375
     11 CAF        30.9164   39.2322   18.2333 C.3         1 OAN       0.0780
     12 OAM        30.5321   38.9253   16.8973 O.3         1 OAN      -0.3919
     13 OAL        28.7714   40.2758   18.6567 O.3         1 OAN      -0.2871
     14 CAA        28.0518   41.3419   19.0402 C.2         1 OAN       0.1893
     15 NAY        27.3918   42.0288   18.1742 N.2         1 OAN      -0.1541
     16 OAQ        27.1036   41.8267   16.9392 O.3         1 OAN      -0.1506
     17 CAP        27.0076   40.6968   16.1888 C.2         1 OAN       0.3788
     18 OAR        27.0572   39.4782   16.7730 O.2         1 OAN      -0.3643
     19 NAO        26.7284   40.8608   14.8756 N.am        1 OAN      -0.2057
     20 CAS        26.5208   39.9306   13.8867 C.ar        1 OAN       0.0683
     21 CAT        25.8987   40.4013   12.7052 C.ar        1 OAN      -0.0414
     22 CAU        25.6396   39.5320   11.6280 C.ar        1 OAN      -0.0756
     23 CAV        26.0094   38.1786   11.7068 C.ar        1 OAN      -0.0773
     24 CAW        26.6407   37.6955   12.8670 C.ar        1 OAN      -0.0756
     25 CAX        26.8988   38.5636   13.9447 C.ar        1 OAN      -0.0414
     26 H1         26.2622   44.9980   21.5774 H           1 OAN       0.0467
     27 H2         24.7494   44.1677   21.9488 H           1 OAN       0.0467
     28 H3         25.0443   44.7762   20.3038 H           1 OAN       0.0467
     29 H4         27.9208   43.6778   21.1189 H           1 OAN       0.1888
     30 H5         27.8345   40.9137   21.0562 H           1 OAN       0.0821
     31 H6         29.9680   42.9613   20.2990 H           1 OAN       0.0672
     32 H7         29.2745   42.7799   22.5021 H           1 OAN       0.2103
     33 H8         30.5145   40.0059   20.8216 H           1 OAN       0.0653
     34 H9         32.0321   42.1137   19.6431 H           1 OAN       0.2100
     35 H10        30.4719   41.3325   18.0478 H           1 OAN       0.0708
     36 H11        30.6598   38.3818   18.8687 H           1 OAN       0.0588
     37 H12        31.9985   39.3752   18.2595 H           1 OAN       0.0588
     38 H13        31.0119   38.0995   16.6757 H           1 OAN       0.2095
     39 H14        26.6176   41.7853   14.6041 H           1 OAN       0.2276
     40 H15        25.6188   41.3846   12.6283 H           1 OAN       0.0501
     41 H16        25.1860   39.8889   10.7838 H           1 OAN       0.0577
     42 H17        25.8249   37.5493   10.9253 H           1 OAN       0.0487
     43 H18        26.9191   36.7122   12.9180 H           1 OAN       0.0577
     44 H19        27.3919   38.1881   14.7544 H           1 OAN       0.0501
@<TRIPOS>BOND
     1     1     2   1
     2     2     3   2
     3     2     4  am
     4     4     5   1
     5     5     6   1
     6     5    14   1
     7     6     7   1
     8     6     8   1
     9     8     9   1
    10     8    10   1
    11    10    11   1
    12    10    13   1
    13    11    12   1
    14    13    14   1
    15    14    15   2
    16    15    16   1
    17    16    17   1
    18    17    18   2
    19    17    19  am
    20    19    20   1
    21    20    21  ar
    22    20    25  ar
    23    21    22  ar
    24    22    23  ar
    25    23    24  ar
    26    24    25  ar
    27     1    26   1
    28     1    27   1
    29     1    28   1
    30     4    29   1
    31     5    30   1
    32     6    31   1
    33     7    32   1
    34     8    33   1
    35     9    34   1
    36    10    35   1
    37    11    36   1
    38    11    37   1
    39    12    38   1
    40    19    39   1
    41    21    40   1
    42    22    41   1
    43    23    42   1
    44    24    43   1
    45    25    44   1
@<TRIPOS>SUBSTRUCTURE
     1  OAN      1

