@<TRIPOS>MOLECULE
2cbj_ligand_038
    44    45
SMALL
GAST_HUCK
****
This file was generated by PARSER (from files_GN.cpp)

@<TRIPOS>ATOM
      1 CAH        32.1055   43.8543   21.9604 C.3         1 OAN       0.0258
      2 CAG        31.5862   43.0317   20.8903 C.2         1 OAN       0.1755
      3 OAN        31.2523   43.5907   19.8530 O.2         1 OAN      -0.3972
      4 NAI        31.3446   41.7364   21.0928 N.am        1 OAN      -0.2641
      5 CAB        30.7772   40.7748   20.1803 C.3         1 OAN       0.1483
      6 CAC        31.7262   40.4792   18.9737 C.3         1 OAN       0.1223
      7 OAJ        32.9461   39.8942   19.4280 O.3         1 OAN      -0.3842
      8 CAD        31.0669   39.5321   17.9283 C.3         1 OAN       0.1187
      9 OAK        31.8947   39.4087   16.7706 O.3         1 OAN      -0.3859
     10 CAE        29.6436   40.0726   17.5861 C.3         1 OAN       0.1375
     11 CAF        28.8455   39.1816   16.6009 C.3         1 OAN       0.0780
     12 OAM        29.2192   39.4692   15.2561 O.3         1 OAN      -0.3919
     13 OAL        28.8783   40.1843   18.8137 O.3         1 OAN      -0.2871
     14 CAA        29.4303   41.0576   19.6821 C.2         1 OAN       0.1893
     15 NAY        28.8501   42.1950   19.8344 N.2         1 OAN      -0.1541
     16 OAQ        27.7051   42.4673   19.3643 O.3         1 OAN      -0.1506
     17 CAP        27.4693   43.5923   18.6610 C.2         1 OAN       0.3788
     18 OAR        28.4999   44.3905   18.3057 O.2         1 OAN      -0.3643
     19 NAO        26.2105   43.8286   18.2301 N.am        1 OAN      -0.2057
     20 CAS        25.8626   44.7320   17.2743 C.ar        1 OAN       0.0683
     21 CAT        25.0797   45.8596   17.6137 C.ar        1 OAN      -0.0414
     22 CAU        24.6761   46.7681   16.6090 C.ar        1 OAN      -0.0756
     23 CAV        25.0285   46.5445   15.2699 C.ar        1 OAN      -0.0773
     24 CAW        25.7784   45.4085   14.9223 C.ar        1 OAN      -0.0756
     25 CAX        26.1887   44.5061   15.9221 C.ar        1 OAN      -0.0414
     26 H1         32.4511   43.2515   22.8023 H           1 OAN       0.0467
     27 H2         31.3240   44.5300   22.3155 H           1 OAN       0.0467
     28 H3         32.9475   44.4517   21.5995 H           1 OAN       0.0467
     29 H4         31.6114   41.3869   21.9579 H           1 OAN       0.1888
     30 H5         30.6790   39.8500   20.7526 H           1 OAN       0.0821
     31 H6         31.9728   41.4184   18.4710 H           1 OAN       0.0672
     32 H7         33.1451   40.3253   20.2869 H           1 OAN       0.2103
     33 H8         30.9679   38.5365   18.3743 H           1 OAN       0.0653
     34 H9         31.9411   40.3067   16.3808 H           1 OAN       0.2100
     35 H10        29.7320   41.0616   17.1161 H           1 OAN       0.0708
     36 H11        27.7777   39.3861   16.7091 H           1 OAN       0.0588
     37 H12        29.0165   38.1230   16.8073 H           1 OAN       0.0588
     38 H13        28.6897   38.8707   14.6980 H           1 OAN       0.2095
     39 H14        25.4929   43.2884   18.6146 H           1 OAN       0.2276
     40 H15        24.8094   46.0296   18.5869 H           1 OAN       0.0501
     41 H16        24.1250   47.5930   16.8613 H           1 OAN       0.0577
     42 H17        24.7353   47.1973   14.5454 H           1 OAN       0.0487
     43 H18        26.0080   45.2187   13.9429 H           1 OAN       0.0577
     44 H19        26.7027   43.6634   15.6471 H           1 OAN       0.0501
@<TRIPOS>BOND
     1     1     2   1
     2     2     3   2
     3     2     4  am
     4     4     5   1
     5     5     6   1
     6     5    14   1
     7     6     7   1
     8     6     8   1
     9     8     9   1
    10     8    10   1
    11    10    11   1
    12    10    13   1
    13    11    12   1
    14    13    14   1
    15    14    15   2
    16    15    16   1
    17    16    17   1
    18    17    18   2
    19    17    19  am
    20    19    20   1
    21    20    21  ar
    22    20    25  ar
    23    21    22  ar
    24    22    23  ar
    25    23    24  ar
    26    24    25  ar
    27     1    26   1
    28     1    27   1
    29     1    28   1
    30     4    29   1
    31     5    30   1
    32     6    31   1
    33     7    32   1
    34     8    33   1
    35     9    34   1
    36    10    35   1
    37    11    36   1
    38    11    37   1
    39    12    38   1
    40    19    39   1
    41    21    40   1
    42    22    41   1
    43    23    42   1
    44    24    43   1
    45    25    44   1
@<TRIPOS>SUBSTRUCTURE
     1  OAN      1

