@<TRIPOS>MOLECULE
2cbj_ligand_021
    44    45
SMALL
GAST_HUCK
****
This file was generated by PARSER (from files_GN.cpp)

@<TRIPOS>ATOM
      1 CAH        34.3520   35.6936   12.0134 C.3         1 OAN       0.0258
      2 CAG        33.7143   34.9818   13.1001 C.2         1 OAN       0.1755
      3 OAN        32.5277   34.6939   12.9758 O.2         1 OAN      -0.3972
      4 NAI        34.3935   34.6964   14.1984 N.am        1 OAN      -0.2641
      5 CAB        33.9285   33.9959   15.3675 C.3         1 OAN       0.1483
      6 CAC        33.6407   32.4936   15.0652 C.3         1 OAN       0.1223
      7 OAJ        34.8443   31.8443   14.6447 O.3         1 OAN      -0.3842
      8 CAD        33.0315   31.7614   16.2975 C.3         1 OAN       0.1187
      9 OAK        32.5734   30.4610   15.9286 O.3         1 OAN      -0.3859
     10 CAE        31.8535   32.6009   16.8854 C.3         1 OAN       0.1375
     11 CAF        31.3368   32.0625   18.2437 C.3         1 OAN       0.0780
     12 OAM        30.7360   30.7746   18.1412 O.3         1 OAN      -0.3919
     13 OAL        32.2860   33.9537   17.1295 O.3         1 OAN      -0.2871
     14 CAA        32.7926   34.6049   16.0614 C.2         1 OAN       0.1893
     15 NAY        32.5255   35.8441   15.9324 N.2         1 OAN      -0.1541
     16 OAQ        31.5410   36.4028   16.5190 O.3         1 OAN      -0.1506
     17 CAP        31.4225   37.7314   16.7310 C.2         1 OAN       0.3788
     18 OAR        32.4483   38.5718   16.4482 O.2         1 OAN      -0.3643
     19 NAO        30.2561   38.1622   17.2552 N.am        1 OAN      -0.2057
     20 CAS        29.9891   39.4093   17.7193 C.ar        1 OAN       0.0683
     21 CAT        28.7265   39.9687   17.4285 C.ar        1 OAN      -0.0414
     22 CAU        28.3693   41.2266   17.9507 C.ar        1 OAN      -0.0756
     23 CAV        29.2603   41.9221   18.7850 C.ar        1 OAN      -0.0773
     24 CAW        30.5070   41.3554   19.1131 C.ar        1 OAN      -0.0756
     25 CAX        30.8698   40.1048   18.5809 C.ar        1 OAN      -0.0414
     26 H1         35.4041   35.8995   12.2227 H           1 OAN       0.0467
     27 H2         33.8422   36.6440   11.8513 H           1 OAN       0.0467
     28 H3         34.2955   35.1015   11.0995 H           1 OAN       0.0467
     29 H4         35.3257   34.9784   14.2146 H           1 OAN       0.1888
     30 H5         34.7546   34.0279   16.0743 H           1 OAN       0.0821
     31 H6         32.9288   32.4091   14.2398 H           1 OAN       0.0672
     32 H7         35.4777   31.9568   15.3862 H           1 OAN       0.2103
     33 H8         33.8092   31.6471   17.0572 H           1 OAN       0.0653
     34 H9         33.3689   29.9828   15.6022 H           1 OAN       0.2100
     35 H10        31.0183   32.6053   16.1738 H           1 OAN       0.0708
     36 H11        30.5988   32.7533   18.6568 H           1 OAN       0.0588
     37 H12        32.1611   31.9945   18.9513 H           1 OAN       0.0588
     38 H13        29.8408   30.9425   17.7744 H           1 OAN       0.2095
     39 H14        29.5201   37.5301   17.2570 H           1 OAN       0.2276
     40 H15        28.0665   39.4692   16.8264 H           1 OAN       0.0501
     41 H16        27.4547   41.6272   17.7262 H           1 OAN       0.0577
     42 H17        28.9921   42.8276   19.1773 H           1 OAN       0.0487
     43 H18        31.1420   41.8468   19.7455 H           1 OAN       0.0577
     44 H19        31.7637   39.6899   18.8549 H           1 OAN       0.0501
@<TRIPOS>BOND
     1     1     2   1
     2     2     3   2
     3     2     4  am
     4     4     5   1
     5     5     6   1
     6     5    14   1
     7     6     7   1
     8     6     8   1
     9     8     9   1
    10     8    10   1
    11    10    11   1
    12    10    13   1
    13    11    12   1
    14    13    14   1
    15    14    15   2
    16    15    16   1
    17    16    17   1
    18    17    18   2
    19    17    19  am
    20    19    20   1
    21    20    21  ar
    22    20    25  ar
    23    21    22  ar
    24    22    23  ar
    25    23    24  ar
    26    24    25  ar
    27     1    26   1
    28     1    27   1
    29     1    28   1
    30     4    29   1
    31     5    30   1
    32     6    31   1
    33     7    32   1
    34     8    33   1
    35     9    34   1
    36    10    35   1
    37    11    36   1
    38    11    37   1
    39    12    38   1
    40    19    39   1
    41    21    40   1
    42    22    41   1
    43    23    42   1
    44    24    43   1
    45    25    44   1
@<TRIPOS>SUBSTRUCTURE
     1  OAN      1

