@<TRIPOS>MOLECULE
2cbj_ligand_003
    44    45
SMALL
GAST_HUCK
****
This file was generated by PARSER (from files_GN.cpp)

@<TRIPOS>ATOM
      1 CAH        27.2608   42.8074   20.5997 C.3         1 OAN       0.0258
      2 CAG        28.6770   42.6075   20.7147 C.2         1 OAN       0.1755
      3 OAN        29.3892   43.0078   19.7903 O.2         1 OAN      -0.3972
      4 NAI        29.1890   41.9238   21.7405 N.am        1 OAN      -0.2641
      5 CAB        30.5668   41.6033   22.0030 C.3         1 OAN       0.1483
      6 CAC        31.2801   42.7604   22.7812 C.3         1 OAN       0.1223
      7 OAJ        30.6411   42.9985   24.0463 O.3         1 OAN      -0.3842
      8 CAD        32.7812   42.4607   23.0513 C.3         1 OAN       0.1187
      9 OAK        33.4374   43.6492   23.5062 O.3         1 OAN      -0.3859
     10 CAE        33.4655   41.9500   21.7445 C.3         1 OAN       0.1375
     11 CAF        34.9026   41.4246   21.9997 C.3         1 OAN       0.0780
     12 OAM        34.8764   40.1397   22.6323 O.3         1 OAN      -0.3919
     13 OAL        32.7126   40.8745   21.1430 O.3         1 OAN      -0.2871
     14 CAA        31.4232   41.2114   20.8757 C.2         1 OAN       0.1893
     15 NAY        31.0358   41.3596   19.6616 N.2         1 OAN      -0.1541
     16 OAQ        31.8113   41.1626   18.6479 O.3         1 OAN      -0.1506
     17 CAP        31.4620   41.5568   17.3900 C.2         1 OAN       0.3788
     18 OAR        30.2871   42.2085   17.1887 O.2         1 OAN      -0.3643
     19 NAO        32.4039   41.4180   16.4338 N.am        1 OAN      -0.2057
     20 CAS        32.4022   41.9096   15.1607 C.ar        1 OAN       0.0683
     21 CAT        33.6567   42.2622   14.6185 C.ar        1 OAN      -0.0414
     22 CAU        33.7527   42.8102   13.3305 C.ar        1 OAN      -0.0756
     23 CAV        32.5912   42.9928   12.5512 C.ar        1 OAN      -0.0773
     24 CAW        31.3387   42.6025   13.0609 C.ar        1 OAN      -0.0756
     25 CAX        31.2465   42.0574   14.3577 C.ar        1 OAN      -0.0414
     26 H1         26.7197   42.4294   21.4802 H           1 OAN       0.0467
     27 H2         26.8782   42.2841   19.7115 H           1 OAN       0.0467
     28 H3         27.0401   43.8788   20.4960 H           1 OAN       0.0467
     29 H4         28.5421   41.6350   22.4056 H           1 OAN       0.1888
     30 H5         30.5431   40.7412   22.6820 H           1 OAN       0.0821
     31 H6         31.2114   43.6869   22.1994 H           1 OAN       0.0672
     32 H7         29.7013   43.1617   23.8225 H           1 OAN       0.2103
     33 H8         32.8622   41.6974   23.8337 H           1 OAN       0.0653
     34 H9         32.7409   44.1875   23.9447 H           1 OAN       0.2100
     35 H10        33.5413   42.7778   21.0383 H           1 OAN       0.0708
     36 H11        35.4608   42.1196   22.6369 H           1 OAN       0.0588
     37 H12        35.4456   41.3395   21.0443 H           1 OAN       0.0588
     38 H13        35.3068   39.5359   21.9812 H           1 OAN       0.2095
     39 H14        33.2421   41.0431   16.7458 H           1 OAN       0.2276
     40 H15        34.5092   42.1578   15.1701 H           1 OAN       0.0501
     41 H16        34.6652   43.0900   12.9507 H           1 OAN       0.0577
     42 H17        32.6611   43.3953   11.6094 H           1 OAN       0.0487
     43 H18        30.5004   42.7200   12.4922 H           1 OAN       0.0577
     44 H19        30.3316   41.7652   14.6897 H           1 OAN       0.0501
@<TRIPOS>BOND
     1     1     2   1
     2     2     3   2
     3     2     4  am
     4     4     5   1
     5     5     6   1
     6     5    14   1
     7     6     7   1
     8     6     8   1
     9     8     9   1
    10     8    10   1
    11    10    11   1
    12    10    13   1
    13    11    12   1
    14    13    14   1
    15    14    15   2
    16    15    16   1
    17    16    17   1
    18    17    18   2
    19    17    19  am
    20    19    20   1
    21    20    21  ar
    22    20    25  ar
    23    21    22  ar
    24    22    23  ar
    25    23    24  ar
    26    24    25  ar
    27     1    26   1
    28     1    27   1
    29     1    28   1
    30     4    29   1
    31     5    30   1
    32     6    31   1
    33     7    32   1
    34     8    33   1
    35     9    34   1
    36    10    35   1
    37    11    36   1
    38    11    37   1
    39    12    38   1
    40    19    39   1
    41    21    40   1
    42    22    41   1
    43    23    42   1
    44    24    43   1
    45    25    44   1
@<TRIPOS>SUBSTRUCTURE
     1  OAN      1

