@<TRIPOS>MOLECULE
2cbj_ligand_037
    44    45
SMALL
GAST_HUCK
****
This file was generated by PARSER (from files_GN.cpp)

@<TRIPOS>ATOM
      1 CAH        28.3501   37.5088   22.0730 C.3         1 OAN       0.0258
      2 CAG        28.9906   38.8008   22.0762 C.2         1 OAN       0.1755
      3 OAN        28.4114   39.7665   21.5944 O.2         1 OAN      -0.3972
      4 NAI        30.2055   38.8899   22.6067 N.am        1 OAN      -0.2641
      5 CAB        31.0236   40.0660   22.7504 C.3         1 OAN       0.1483
      6 CAC        30.3914   41.1085   23.7290 C.3         1 OAN       0.1223
      7 OAJ        30.2744   40.5640   25.0449 O.3         1 OAN      -0.3842
      8 CAD        31.2363   42.4121   23.7851 C.3         1 OAN       0.1187
      9 OAK        30.5702   43.3802   24.5929 O.3         1 OAN      -0.3859
     10 CAE        31.4825   42.9129   22.3300 C.3         1 OAN       0.1375
     11 CAF        32.3750   44.1703   22.2753 C.3         1 OAN       0.0780
     12 OAM        32.3017   44.8037   21.0023 O.3         1 OAN      -0.3919
     13 OAL        32.1365   41.8669   21.5728 O.3         1 OAN      -0.2871
     14 CAA        31.4156   40.7235   21.5020 C.2         1 OAN       0.1893
     15 NAY        31.0617   40.2720   20.3549 N.2         1 OAN      -0.1541
     16 OAQ        31.3880   40.8632   19.2789 O.3         1 OAN      -0.1506
     17 CAP        30.6077   40.9163   18.1764 C.2         1 OAN       0.3788
     18 OAR        29.3758   40.3446   18.1900 O.2         1 OAN      -0.3643
     19 NAO        31.0587   41.7043   17.1771 N.am        1 OAN      -0.2057
     20 CAS        30.3933   42.0572   16.0399 C.ar        1 OAN       0.0683
     21 CAT        29.5931   41.1706   15.2819 C.ar        1 OAN      -0.0414
     22 CAU        28.9155   41.6190   14.1341 C.ar        1 OAN      -0.0756
     23 CAV        29.0391   42.9596   13.7222 C.ar        1 OAN      -0.0773
     24 CAW        29.8635   43.8403   14.4466 C.ar        1 OAN      -0.0756
     25 CAX        30.5403   43.3886   15.5935 C.ar        1 OAN      -0.0414
     26 H1         28.2971   37.1325   23.0979 H           1 OAN       0.0467
     27 H2         28.9380   36.8124   21.4699 H           1 OAN       0.0467
     28 H3         27.3339   37.5508   21.6668 H           1 OAN       0.0467
     29 H4         30.5835   38.0598   22.9466 H           1 OAN       0.1888
     30 H5         31.9551   39.7306   23.2116 H           1 OAN       0.0821
     31 H6         29.3848   41.3757   23.3891 H           1 OAN       0.0672
     32 H7         29.7000   39.7791   24.9366 H           1 OAN       0.2103
     33 H8         32.2032   42.2014   24.2531 H           1 OAN       0.0653
     34 H9         29.7798   43.6474   24.0827 H           1 OAN       0.2100
     35 H10        30.5249   43.1695   21.8588 H           1 OAN       0.0708
     36 H11        33.4106   43.8992   22.4966 H           1 OAN       0.0588
     37 H12        32.0304   44.9017   23.0091 H           1 OAN       0.0588
     38 H13        32.6833   44.1712   20.3617 H           1 OAN       0.2095
     39 H14        31.8867   42.1810   17.3673 H           1 OAN       0.2276
     40 H15        29.5125   40.1879   15.5473 H           1 OAN       0.0501
     41 H16        28.3323   40.9746   13.5940 H           1 OAN       0.0577
     42 H17        28.5322   43.2944   12.8978 H           1 OAN       0.0487
     43 H18        29.9638   44.8108   14.1389 H           1 OAN       0.0577
     44 H19        31.1236   44.0491   16.1121 H           1 OAN       0.0501
@<TRIPOS>BOND
     1     1     2   1
     2     2     3   2
     3     2     4  am
     4     4     5   1
     5     5     6   1
     6     5    14   1
     7     6     7   1
     8     6     8   1
     9     8     9   1
    10     8    10   1
    11    10    11   1
    12    10    13   1
    13    11    12   1
    14    13    14   1
    15    14    15   2
    16    15    16   1
    17    16    17   1
    18    17    18   2
    19    17    19  am
    20    19    20   1
    21    20    21  ar
    22    20    25  ar
    23    21    22  ar
    24    22    23  ar
    25    23    24  ar
    26    24    25  ar
    27     1    26   1
    28     1    27   1
    29     1    28   1
    30     4    29   1
    31     5    30   1
    32     6    31   1
    33     7    32   1
    34     8    33   1
    35     9    34   1
    36    10    35   1
    37    11    36   1
    38    11    37   1
    39    12    38   1
    40    19    39   1
    41    21    40   1
    42    22    41   1
    43    23    42   1
    44    24    43   1
    45    25    44   1
@<TRIPOS>SUBSTRUCTURE
     1  OAN      1

