@<TRIPOS>MOLECULE
2cbj_ligand_024
    44    45
SMALL
GAST_HUCK
****
This file was generated by PARSER (from files_GN.cpp)

@<TRIPOS>ATOM
      1 CAH        30.6998   43.6472   16.7529 C.3         1 OAN       0.0258
      2 CAG        30.1135   43.4363   18.0558 C.2         1 OAN       0.1755
      3 OAN        29.1246   44.0966   18.3449 O.2         1 OAN      -0.3972
      4 NAI        30.5982   42.5071   18.8709 N.am        1 OAN      -0.2641
      5 CAB        30.0887   42.1508   20.1712 C.3         1 OAN       0.1483
      6 CAC        31.2559   42.2111   21.1949 C.3         1 OAN       0.1223
      7 OAJ        31.7564   43.5446   21.2938 O.3         1 OAN      -0.3842
      8 CAD        30.7911   41.7239   22.5934 C.3         1 OAN       0.1187
      9 OAK        31.8915   41.7063   23.5040 O.3         1 OAN      -0.3859
     10 CAE        30.1313   40.3190   22.4415 C.3         1 OAN       0.1375
     11 CAF        29.5252   39.8033   23.7673 C.3         1 OAN       0.0780
     12 OAM        28.9988   38.4896   23.5941 O.3         1 OAN      -0.3919
     13 OAL        29.0743   40.3629   21.4480 O.3         1 OAN      -0.2871
     14 CAA        29.4124   40.8441   20.2403 C.2         1 OAN       0.1893
     15 NAY        28.8035   40.2858   19.2548 N.2         1 OAN      -0.1541
     16 OAQ        29.0280   40.5222   18.0222 O.3         1 OAN      -0.1506
     17 CAP        28.1704   40.4067   16.9823 C.2         1 OAN       0.3788
     18 OAR        26.8496   40.1776   17.1882 O.2         1 OAN      -0.3643
     19 NAO        28.6876   40.6373   15.7561 N.am        1 OAN      -0.2057
     20 CAS        27.9687   40.8898   14.6284 C.ar        1 OAN       0.0683
     21 CAT        27.2339   42.0934   14.5160 C.ar        1 OAN      -0.0414
     22 CAU        26.5650   42.4143   13.3184 C.ar        1 OAN      -0.0756
     23 CAV        26.6209   41.5338   12.2222 C.ar        1 OAN      -0.0773
     24 CAW        27.3507   40.3378   12.3248 C.ar        1 OAN      -0.0756
     25 CAX        28.0350   40.0215   13.5166 C.ar        1 OAN      -0.0414
     26 H1         31.5591   42.9956   16.5814 H           1 OAN       0.0467
     27 H2         31.0289   44.6839   16.6697 H           1 OAN       0.0467
     28 H3         29.9553   43.4476   15.9800 H           1 OAN       0.0467
     29 H4         31.3480   41.9820   18.5397 H           1 OAN       0.1888
     30 H5         29.3474   42.8874   20.5022 H           1 OAN       0.0821
     31 H6         32.0794   41.5712   20.8511 H           1 OAN       0.0672
     32 H7         32.2855   43.6655   20.4776 H           1 OAN       0.2103
     33 H8         30.0489   42.4243   22.9853 H           1 OAN       0.0653
     34 H9         32.4920   41.0026   23.1809 H           1 OAN       0.2100
     35 H10        30.8920   39.6000   22.1184 H           1 OAN       0.0708
     36 H11        28.7226   40.4633   24.0994 H           1 OAN       0.0588
     37 H12        30.2894   39.7644   24.5468 H           1 OAN       0.0588
     38 H13        28.6707   38.2241   24.4783 H           1 OAN       0.2095
     39 H14        29.6549   40.7095   15.6932 H           1 OAN       0.2276
     40 H15        27.2035   42.7498   15.2984 H           1 OAN       0.0501
     41 H16        26.0356   43.2829   13.2419 H           1 OAN       0.0577
     42 H17        26.1256   41.7603   11.3602 H           1 OAN       0.0487
     43 H18        27.3686   39.6853   11.5382 H           1 OAN       0.0577
     44 H19        28.5646   39.1486   13.5826 H           1 OAN       0.0501
@<TRIPOS>BOND
     1     1     2   1
     2     2     3   2
     3     2     4  am
     4     4     5   1
     5     5     6   1
     6     5    14   1
     7     6     7   1
     8     6     8   1
     9     8     9   1
    10     8    10   1
    11    10    11   1
    12    10    13   1
    13    11    12   1
    14    13    14   1
    15    14    15   2
    16    15    16   1
    17    16    17   1
    18    17    18   2
    19    17    19  am
    20    19    20   1
    21    20    21  ar
    22    20    25  ar
    23    21    22  ar
    24    22    23  ar
    25    23    24  ar
    26    24    25  ar
    27     1    26   1
    28     1    27   1
    29     1    28   1
    30     4    29   1
    31     5    30   1
    32     6    31   1
    33     7    32   1
    34     8    33   1
    35     9    34   1
    36    10    35   1
    37    11    36   1
    38    11    37   1
    39    12    38   1
    40    19    39   1
    41    21    40   1
    42    22    41   1
    43    23    42   1
    44    24    43   1
    45    25    44   1
@<TRIPOS>SUBSTRUCTURE
     1  OAN      1

