@<TRIPOS>MOLECULE
2cet_ligand_014
    42    44
SMALL
GAST_HUCK
****
This file was generated by PARSER (from files_GN.cpp)

@<TRIPOS>ATOM
      1 O6         -3.5804   10.2483   16.1996 O.3         1 PGI      -0.3919
      2 C6         -2.6536    9.4039   15.5276 C.3         1 PGI       0.0768
      3 C5         -3.2033    7.9640   15.2901 C.3         1 PGI       0.1168
      4 C4         -3.6332    7.3190   16.6516 C.3         1 PGI       0.1178
      5 O4         -4.8920    7.8162   17.0991 O.3         1 PGI      -0.3858
      6 C3         -3.7289    5.7737   16.5553 C.3         1 PGI       0.1252
      7 O3         -4.0901    5.2535   17.8366 O.3         1 PGI      -0.3839
      8 C2         -2.3892    5.1426   16.0849 C.3         1 PGI       0.1578
      9 O2         -2.6134    3.7922   15.6681 O.3         1 PGI      -0.3700
     10 N1         -2.2332    7.1417   14.5936 N.pl3       1 PGI      -0.2495
     11 C8         -1.5705    7.4455   13.4607 C.2         1 PGI       0.0236
     12 C7         -0.6342    6.4387   13.2311 C.2         1 PGI      -0.0178
     13 N2         -0.8167    5.4962   14.1684 N.2         1 PGI      -0.3315
     14 C1         -1.8146    5.9118   14.9657 C.2         1 PGI       0.1427
     15 C9          0.4050    6.3839   12.1795 C.3         1 PGI      -0.0191
     16 C10         1.1325    7.7411   11.9136 C.3         1 PGI      -0.0133
     17 C14         0.4651    8.5723   10.8770 C.ar        1 PGI      -0.0416
     18 C13        -0.3156    9.7070   11.2173 C.ar        1 PGI      -0.0602
     19 C12        -0.9786   10.4458   10.2213 C.ar        1 PGI      -0.0686
     20 C15         0.5748    8.2148    9.5098 C.ar        1 PGI      -0.0602
     21 C16        -0.0824    8.9558    8.5128 C.ar        1 PGI      -0.0686
     22 C11        -0.8724   10.0680    8.8692 C.ar        1 PGI      -0.0687
     23 H1         -3.7294    9.8367   17.0757 H           1 PGI       0.2095
     24 H2         -1.7298    9.3649   16.1084 H           1 PGI       0.0589
     25 H3         -2.4239    9.8806   14.5742 H           1 PGI       0.0589
     26 H4         -4.0863    8.0369   14.6517 H           1 PGI       0.0699
     27 H5         -2.8877    7.5554   17.4173 H           1 PGI       0.0654
     28 H6         -4.7916    7.9594   18.0682 H           1 PGI       0.2100
     29 H7         -4.5163    5.5169   15.8410 H           1 PGI       0.0675
     30 H8         -4.5631    4.4216   17.6501 H           1 PGI       0.2103
     31 H9         -1.6656    5.1379   16.9049 H           1 PGI       0.0858
     32 H10        -3.1883    3.3897   16.3583 H           1 PGI       0.2138
     33 H11        -1.6886    8.2912   12.8927 H           1 PGI       0.0663
     34 H12        -0.0515    6.0044   11.2671 H           1 PGI       0.0392
     35 H13         1.1553    5.6555   12.4856 H           1 PGI       0.0392
     36 H14         2.1541    7.5426   11.5753 H           1 PGI       0.0442
     37 H15         1.2306    8.2974   12.8513 H           1 PGI       0.0442
     38 H16        -0.4149    9.9942   12.1907 H           1 PGI       0.0557
     39 H17        -1.5607   11.2466   10.4793 H           1 PGI       0.0599
     40 H18         1.1272    7.3980    9.2352 H           1 PGI       0.0557
     41 H19        -0.0017    8.6803    7.5322 H           1 PGI       0.0599
     42 H20        -1.3640   10.5983    8.1459 H           1 PGI       0.0559
@<TRIPOS>BOND
     1     1     2   1
     2     2     3   1
     3     3     4   1
     4     3    10   1
     5     4     5   1
     6     4     6   1
     7     6     7   1
     8     6     8   1
     9     8     9   1
    10     8    14   1
    11    10    11   1
    12    10    14   1
    13    11    12   2
    14    12    13   1
    15    12    15   1
    16    13    14   2
    17    15    16   1
    18    16    17   1
    19    17    18  ar
    20    17    20  ar
    21    18    19  ar
    22    19    22  ar
    23    20    21  ar
    24    21    22  ar
    25     1    23   1
    26     2    24   1
    27     2    25   1
    28     3    26   1
    29     4    27   1
    30     5    28   1
    31     6    29   1
    32     7    30   1
    33     8    31   1
    34     9    32   1
    35    11    33   1
    36    15    34   1
    37    15    35   1
    38    16    36   1
    39    16    37   1
    40    18    38   1
    41    19    39   1
    42    20    40   1
    43    21    41   1
    44    22    42   1
@<TRIPOS>SUBSTRUCTURE
     1  PGI      2

