@<TRIPOS>MOLECULE
2cet_ligand_033
    42    44
SMALL
GAST_HUCK
****
This file was generated by PARSER (from files_GN.cpp)

@<TRIPOS>ATOM
      1 O6         -4.8985    7.4090   17.1526 O.3         1 PGI      -0.3919
      2 C6         -3.8462    6.4560   16.9952 C.3         1 PGI       0.0768
      3 C5         -3.7861    5.8952   15.5329 C.3         1 PGI       0.1168
      4 C4         -3.9226    4.3346   15.4339 C.3         1 PGI       0.1178
      5 O4         -4.4809    3.9816   14.1628 O.3         1 PGI      -0.3858
      6 C3         -2.5606    3.6007   15.6229 C.3         1 PGI       0.1252
      7 O3         -2.1263    3.7068   16.9807 O.3         1 PGI      -0.3839
      8 C2         -1.4545    4.1308   14.6617 C.3         1 PGI       0.1578
      9 O2         -1.5375    3.4959   13.3854 O.3         1 PGI      -0.3700
     10 N1         -2.5919    6.3541   14.8693 N.pl3       1 PGI      -0.2495
     11 C8         -2.3078    7.6207   14.5255 C.2         1 PGI       0.0236
     12 C7         -1.0661    7.6196   13.9000 C.2         1 PGI      -0.0178
     13 N2         -0.6178    6.3546   13.8801 N.2         1 PGI      -0.3315
     14 C1         -1.5465    5.5925   14.4802 C.2         1 PGI       0.1427
     15 C9         -0.3481    8.7731   13.3280 C.3         1 PGI      -0.0191
     16 C10        -1.2512    9.6612   12.4199 C.3         1 PGI      -0.0133
     17 C14        -0.5243   10.2482   11.2662 C.ar        1 PGI      -0.0416
     18 C13        -0.0720    9.4014   10.2265 C.ar        1 PGI      -0.0602
     19 C12         0.6076    9.9304    9.1150 C.ar        1 PGI      -0.0686
     20 C15        -0.3110   11.6414   11.1525 C.ar        1 PGI      -0.0602
     21 C16         0.3604   12.1713   10.0342 C.ar        1 PGI      -0.0686
     22 C11         0.8302   11.3155    9.0220 C.ar        1 PGI      -0.0687
     23 H1         -4.7838    7.7655   18.0550 H           1 PGI       0.2095
     24 H2         -4.0151    5.6622   17.7244 H           1 PGI       0.0589
     25 H3         -2.9080    6.9501   17.2650 H           1 PGI       0.0589
     26 H4         -4.6356    6.3123   14.9804 H           1 PGI       0.0699
     27 H5         -4.6255    3.9800   16.1882 H           1 PGI       0.0654
     28 H6         -4.6544    3.0159   14.2040 H           1 PGI       0.2100
     29 H7         -2.7068    2.5337   15.4373 H           1 PGI       0.0675
     30 H8         -1.9540    4.6585   17.1366 H           1 PGI       0.2103
     31 H9         -0.4724    3.8947   15.0791 H           1 PGI       0.0858
     32 H10        -2.4338    3.6994   13.0435 H           1 PGI       0.2138
     33 H11        -2.9084    8.4360   14.6728 H           1 PGI       0.0663
     34 H12         0.5181    8.3921   12.7781 H           1 PGI       0.0392
     35 H13         0.0355    9.3807   14.1506 H           1 PGI       0.0392
     36 H14        -1.6812   10.4478   13.0468 H           1 PGI       0.0442
     37 H15        -2.0941    9.0909   12.0151 H           1 PGI       0.0442
     38 H16        -0.2381    8.3921   10.2740 H           1 PGI       0.0557
     39 H17         0.9538    9.3047    8.3841 H           1 PGI       0.0599
     40 H18        -0.6407   12.2764   11.8839 H           1 PGI       0.0557
     41 H19         0.5208   13.1781    9.9612 H           1 PGI       0.0599
     42 H20         1.3397   11.7007    8.2237 H           1 PGI       0.0559
@<TRIPOS>BOND
     1     1     2   1
     2     2     3   1
     3     3     4   1
     4     3    10   1
     5     4     5   1
     6     4     6   1
     7     6     7   1
     8     6     8   1
     9     8     9   1
    10     8    14   1
    11    10    11   1
    12    10    14   1
    13    11    12   2
    14    12    13   1
    15    12    15   1
    16    13    14   2
    17    15    16   1
    18    16    17   1
    19    17    18  ar
    20    17    20  ar
    21    18    19  ar
    22    19    22  ar
    23    20    21  ar
    24    21    22  ar
    25     1    23   1
    26     2    24   1
    27     2    25   1
    28     3    26   1
    29     4    27   1
    30     5    28   1
    31     6    29   1
    32     7    30   1
    33     8    31   1
    34     9    32   1
    35    11    33   1
    36    15    34   1
    37    15    35   1
    38    16    36   1
    39    16    37   1
    40    18    38   1
    41    19    39   1
    42    20    40   1
    43    21    41   1
    44    22    42   1
@<TRIPOS>SUBSTRUCTURE
     1  PGI      2

