@<TRIPOS>MOLECULE
2cet_ligand_000
    42    44
SMALL
GAST_HUCK
****
This file was generated by PARSER (from files_GN.cpp)

@<TRIPOS>ATOM
      1 O6          1.2554   11.8034    8.1495 O.3         1 PGI      -0.3919
      2 C6          0.0715   11.9563    8.9419 C.3         1 PGI       0.0768
      3 C5         -0.8257   10.6817    8.7855 C.3         1 PGI       0.1168
      4 C4         -1.9728   10.8950    7.7324 C.3         1 PGI       0.1178
      5 O4         -1.4259   10.9931    6.4150 O.3         1 PGI      -0.3858
      6 C3         -3.0024    9.7289    7.7978 C.3         1 PGI       0.1252
      7 O3         -4.0280    9.8864    6.8267 O.3         1 PGI      -0.3839
      8 C2         -3.6305    9.6436    9.2133 C.3         1 PGI       0.1578
      9 O2         -4.3950    8.4529    9.3629 O.3         1 PGI      -0.3700
     10 N1         -1.3388   10.1730   10.0365 N.pl3       1 PGI      -0.2495
     11 C8         -0.6464    9.9493   11.1637 C.2         1 PGI       0.0236
     12 C7         -1.4954    9.3686   12.0953 C.2         1 PGI      -0.0178
     13 N2         -2.7010    9.2179   11.5112 N.2         1 PGI      -0.3315
     14 C1         -2.5848    9.6912   10.2503 C.2         1 PGI       0.1427
     15 C9         -1.1615    9.0083   13.4906 C.3         1 PGI      -0.0191
     16 C10        -1.2838    7.4839   13.8074 C.3         1 PGI      -0.0133
     17 C14        -2.2730    7.2115   14.8788 C.ar        1 PGI      -0.0416
     18 C13        -3.6426    7.0525   14.5643 C.ar        1 PGI      -0.0602
     19 C12        -4.5914    6.7931   15.5737 C.ar        1 PGI      -0.0686
     20 C15        -1.8751    7.1039   16.2363 C.ar        1 PGI      -0.0602
     21 C16        -2.8301    6.8451   17.2457 C.ar        1 PGI      -0.0686
     22 C11        -4.1834    6.6696   16.9105 C.ar        1 PGI      -0.0687
     23 H1          1.8307   12.5604    8.4101 H           1 PGI       0.2095
     24 H2         -0.4511   12.8698    8.6285 H           1 PGI       0.0589
     25 H3          0.4043   12.0819    9.9785 H           1 PGI       0.0589
     26 H4         -0.1989    9.8696    8.3921 H           1 PGI       0.0699
     27 H5         -2.4911   11.8376    7.9443 H           1 PGI       0.0654
     28 H6         -1.5477   10.0963    6.0130 H           1 PGI       0.2100
     29 H7         -2.4851    8.7937    7.5775 H           1 PGI       0.0675
     30 H8         -4.8190   10.2068    7.3274 H           1 PGI       0.2103
     31 H9         -4.2963   10.4995    9.3625 H           1 PGI       0.0858
     32 H10        -5.2396    8.7526    9.7777 H           1 PGI       0.2138
     33 H11         0.3356   10.1472   11.3222 H           1 PGI       0.0663
     34 H12        -1.8002    9.6188   14.1510 H           1 PGI       0.0392
     35 H13        -0.1276    9.3247   13.6925 H           1 PGI       0.0392
     36 H14        -0.3038    7.1149   14.1025 H           1 PGI       0.0442
     37 H15        -1.5598    6.9213   12.9171 H           1 PGI       0.0442
     38 H16        -3.9573    7.1318   13.5889 H           1 PGI       0.0557
     39 H17        -5.5724    6.6606   15.3201 H           1 PGI       0.0599
     40 H18        -0.8961    7.2347   16.5061 H           1 PGI       0.0557
     41 H19        -2.5285    6.7535   18.2215 H           1 PGI       0.0599
     42 H20        -4.8715    6.4785   17.6361 H           1 PGI       0.0559
@<TRIPOS>BOND
     1     1     2   1
     2     2     3   1
     3     3     4   1
     4     3    10   1
     5     4     5   1
     6     4     6   1
     7     6     7   1
     8     6     8   1
     9     8     9   1
    10     8    14   1
    11    10    11   1
    12    10    14   1
    13    11    12   2
    14    12    13   1
    15    12    15   1
    16    13    14   2
    17    15    16   1
    18    16    17   1
    19    17    18  ar
    20    17    20  ar
    21    18    19  ar
    22    19    22  ar
    23    20    21  ar
    24    21    22  ar
    25     1    23   1
    26     2    24   1
    27     2    25   1
    28     3    26   1
    29     4    27   1
    30     5    28   1
    31     6    29   1
    32     7    30   1
    33     8    31   1
    34     9    32   1
    35    11    33   1
    36    15    34   1
    37    15    35   1
    38    16    36   1
    39    16    37   1
    40    18    38   1
    41    19    39   1
    42    20    40   1
    43    21    41   1
    44    22    42   1
@<TRIPOS>SUBSTRUCTURE
     1  PGI      2

