@<TRIPOS>MOLECULE
2cet_ligand_006
    42    44
SMALL
GAST_HUCK
****
This file was generated by PARSER (from files_GN.cpp)

@<TRIPOS>ATOM
      1 O6          0.9743    1.6359    5.7953 O.3         1 PGI      -0.3919
      2 C6          1.1863    1.8867    7.1939 C.3         1 PGI       0.0768
      3 C5          0.2537    2.9699    7.8212 C.3         1 PGI       0.1168
      4 C4         -0.2978    4.0259    6.7915 C.3         1 PGI       0.1178
      5 O4         -1.5045    4.5926    7.3151 O.3         1 PGI      -0.3858
      6 C3          0.7306    5.1551    6.5147 C.3         1 PGI       0.1252
      7 O3          1.8792    4.6358    5.8359 O.3         1 PGI      -0.3839
      8 C2          1.1622    5.8703    7.8282 C.3         1 PGI       0.1578
      9 O2          0.1646    6.7776    8.3006 O.3         1 PGI      -0.3700
     10 N1          0.9414    3.6220    8.9145 N.pl3       1 PGI      -0.2495
     11 C8          1.2395    3.0986   10.1143 C.2         1 PGI       0.0236
     12 C7          1.8861    4.0811   10.8489 C.2         1 PGI      -0.0178
     13 N2          1.9614    5.1866   10.0938 N.2         1 PGI      -0.3315
     14 C1          1.3894    4.8991    8.9164 C.2         1 PGI       0.1427
     15 C9          2.2866    4.0123   12.2674 C.3         1 PGI      -0.0191
     16 C10         1.1051    4.3013   13.2380 C.3         1 PGI      -0.0133
     17 C14         0.6241    5.7149   13.1608 C.ar        1 PGI      -0.0416
     18 C13         1.2112    6.7193   13.9644 C.ar        1 PGI      -0.0602
     19 C12         0.8061    8.0644   13.8365 C.ar        1 PGI      -0.0686
     20 C15        -0.3851    6.0825   12.2383 C.ar        1 PGI      -0.0602
     21 C16        -0.7838    7.4284   12.1120 C.ar        1 PGI      -0.0686
     22 C11        -0.1866    8.4183   12.9131 C.ar        1 PGI      -0.0687
     23 H1          0.1235    1.1468    5.7343 H           1 PGI       0.2095
     24 H2          2.2368    2.1768    7.2976 H           1 PGI       0.0589
     25 H3          1.0611    0.9331    7.7259 H           1 PGI       0.0589
     26 H4         -0.6157    2.4397    8.2344 H           1 PGI       0.0699
     27 H5         -0.5805    3.5527    5.8489 H           1 PGI       0.0654
     28 H6         -1.7074    5.3478    6.7269 H           1 PGI       0.2100
     29 H7          0.2879    5.8836    5.8361 H           1 PGI       0.0675
     30 H8          2.5328    4.4306    6.5378 H           1 PGI       0.2103
     31 H9          2.0707    6.4468    7.6384 H           1 PGI       0.0858
     32 H10        -0.3557    7.0521    7.5178 H           1 PGI       0.2138
     33 H11         1.0085    2.1616   10.4396 H           1 PGI       0.0663
     34 H12         3.0932    4.7258   12.4602 H           1 PGI       0.0392
     35 H13         2.6832    3.0101   12.4731 H           1 PGI       0.0392
     36 H14         1.4311    4.0872   14.2636 H           1 PGI       0.0442
     37 H15         0.2822    3.6105   13.0331 H           1 PGI       0.0442
     38 H16         1.9412    6.4875   14.6338 H           1 PGI       0.0557
     39 H17         1.2468    8.7814   14.4105 H           1 PGI       0.0599
     40 H18        -0.8221    5.3803   11.6357 H           1 PGI       0.0557
     41 H19        -1.5074    7.6834   11.4341 H           1 PGI       0.0599
     42 H20        -0.4763    9.3916   12.8211 H           1 PGI       0.0559
@<TRIPOS>BOND
     1     1     2   1
     2     2     3   1
     3     3     4   1
     4     3    10   1
     5     4     5   1
     6     4     6   1
     7     6     7   1
     8     6     8   1
     9     8     9   1
    10     8    14   1
    11    10    11   1
    12    10    14   1
    13    11    12   2
    14    12    13   1
    15    12    15   1
    16    13    14   2
    17    15    16   1
    18    16    17   1
    19    17    18  ar
    20    17    20  ar
    21    18    19  ar
    22    19    22  ar
    23    20    21  ar
    24    21    22  ar
    25     1    23   1
    26     2    24   1
    27     2    25   1
    28     3    26   1
    29     4    27   1
    30     5    28   1
    31     6    29   1
    32     7    30   1
    33     8    31   1
    34     9    32   1
    35    11    33   1
    36    15    34   1
    37    15    35   1
    38    16    36   1
    39    16    37   1
    40    18    38   1
    41    19    39   1
    42    20    40   1
    43    21    41   1
    44    22    42   1
@<TRIPOS>SUBSTRUCTURE
     1  PGI      2

