@<TRIPOS>MOLECULE
2cet_ligand_009
    42    44
SMALL
GAST_HUCK
****
This file was generated by PARSER (from files_GN.cpp)

@<TRIPOS>ATOM
      1 O6         -0.7046   10.2355   12.4526 O.3         1 PGI      -0.3919
      2 C6         -0.6427   11.2744   11.4829 C.3         1 PGI       0.0768
      3 C5          0.2011   10.9398   10.2061 C.3         1 PGI       0.1168
      4 C4         -0.2637   11.7666    8.9563 C.3         1 PGI       0.1178
      5 O4          0.8016   11.8822    8.0142 O.3         1 PGI      -0.3858
      6 C3         -1.4813   11.1060    8.2339 C.3         1 PGI       0.1252
      7 O3         -2.6672   11.1701    9.0304 O.3         1 PGI      -0.3839
      8 C2         -1.2205    9.6163    7.8599 C.3         1 PGI       0.1578
      9 O2         -0.5237    9.5604    6.6213 O.3         1 PGI      -0.3700
     10 N1          0.2183    9.5248    9.9173 N.pl3       1 PGI      -0.2495
     11 C8          0.8583    8.5589   10.6060 C.2         1 PGI       0.0236
     12 C7          0.5310    7.3378   10.0403 C.2         1 PGI      -0.0178
     13 N2         -0.2543    7.5847    8.9845 N.2         1 PGI      -0.3315
     14 C1         -0.4363    8.9155    8.9008 C.2         1 PGI       0.1427
     15 C9          0.9327    6.0138   10.5715 C.3         1 PGI      -0.0191
     16 C10         0.0496    4.8157   10.1220 C.3         1 PGI      -0.0133
     17 C14         0.1392    4.5065    8.6650 C.ar        1 PGI      -0.0416
     18 C13         1.3410    4.0019    8.1148 C.ar        1 PGI      -0.0602
     19 C12         1.4458    3.7360    6.7364 C.ar        1 PGI      -0.0686
     20 C15        -0.9674    4.7164    7.8023 C.ar        1 PGI      -0.0602
     21 C16        -0.8642    4.4549    6.4254 C.ar        1 PGI      -0.0686
     22 C11         0.3443    3.9677    5.8956 C.ar        1 PGI      -0.0687
     23 H1          0.2307   10.0519   12.6529 H           1 PGI       0.2095
     24 H2         -0.2395   12.1728   11.9450 H           1 PGI       0.0589
     25 H3         -1.6721   11.4911   11.2423 H           1 PGI       0.0589
     26 H4          1.2374   11.2260   10.4187 H           1 PGI       0.0699
     27 H5         -0.5321   12.7825    9.2462 H           1 PGI       0.0654
     28 H6          1.4110   12.5502    8.3872 H           1 PGI       0.2100
     29 H7         -1.6962   11.6756    7.3235 H           1 PGI       0.0675
     30 H8         -2.6986   12.0811    9.3790 H           1 PGI       0.2103
     31 H9         -2.1746    9.1034    7.7247 H           1 PGI       0.0858
     32 H10        -0.5718    8.6235    6.3660 H           1 PGI       0.2138
     33 H11         1.4384    8.6956   11.4357 H           1 PGI       0.0663
     34 H12         0.8821    6.0577   11.6647 H           1 PGI       0.0392
     35 H13         1.9820    5.8314   10.3140 H           1 PGI       0.0392
     36 H14        -0.9831    5.0282   10.4082 H           1 PGI       0.0442
     37 H15         0.3602    3.9269   10.6743 H           1 PGI       0.0442
     38 H16         2.1491    3.8240    8.7158 H           1 PGI       0.0557
     39 H17         2.3172    3.3749    6.3504 H           1 PGI       0.0599
     40 H18        -1.8482    5.0807    8.1693 H           1 PGI       0.0557
     41 H19        -1.6621    4.6224    5.8124 H           1 PGI       0.0599
     42 H20         0.4192    3.7769    4.8936 H           1 PGI       0.0559
@<TRIPOS>BOND
     1     1     2   1
     2     2     3   1
     3     3     4   1
     4     3    10   1
     5     4     5   1
     6     4     6   1
     7     6     7   1
     8     6     8   1
     9     8     9   1
    10     8    14   1
    11    10    11   1
    12    10    14   1
    13    11    12   2
    14    12    13   1
    15    12    15   1
    16    13    14   2
    17    15    16   1
    18    16    17   1
    19    17    18  ar
    20    17    20  ar
    21    18    19  ar
    22    19    22  ar
    23    20    21  ar
    24    21    22  ar
    25     1    23   1
    26     2    24   1
    27     2    25   1
    28     3    26   1
    29     4    27   1
    30     5    28   1
    31     6    29   1
    32     7    30   1
    33     8    31   1
    34     9    32   1
    35    11    33   1
    36    15    34   1
    37    15    35   1
    38    16    36   1
    39    16    37   1
    40    18    38   1
    41    19    39   1
    42    20    40   1
    43    21    41   1
    44    22    42   1
@<TRIPOS>SUBSTRUCTURE
     1  PGI      2

