@<TRIPOS>MOLECULE
2cet_ligand_032
    42    44
SMALL
GAST_HUCK
****
This file was generated by PARSER (from files_GN.cpp)

@<TRIPOS>ATOM
      1 O6         -3.9879   10.0253    7.1911 O.3         1 PGI      -0.3919
      2 C6         -2.7863    9.4258    7.6721 C.3         1 PGI       0.0768
      3 C5         -2.2664   10.0610    8.9888 C.3         1 PGI       0.1168
      4 C4         -2.1484   11.6214    8.9411 C.3         1 PGI       0.1178
      5 O4         -2.2690   12.1057   10.2789 O.3         1 PGI      -0.3858
      6 C3         -0.8146   12.1291    8.3151 C.3         1 PGI       0.1252
      7 O3         -0.7865   11.8359    6.9111 O.3         1 PGI      -0.3839
      8 C2          0.4277   11.5113    9.0254 C.3         1 PGI       0.1578
      9 O2          0.7814   12.2425   10.2075 O.3         1 PGI      -0.3700
     10 N1         -1.0045    9.4675    9.3600 N.pl3       1 PGI      -0.2495
     11 C8         -0.7974    8.1977    9.7522 C.2         1 PGI       0.0236
     12 C7          0.5631    8.0445    9.9989 C.2         1 PGI      -0.0178
     13 N2          1.1538    9.2231    9.7490 N.2         1 PGI      -0.3315
     14 C1          0.1977   10.0886    9.3682 C.2         1 PGI       0.1427
     15 C9          1.2567    6.8433   10.5036 C.3         1 PGI      -0.0191
     16 C10         2.0560    7.0828   11.8183 C.3         1 PGI      -0.0133
     17 C14         1.2323    7.1815   13.0595 C.ar        1 PGI      -0.0416
     18 C13         0.2946    8.2282   13.2379 C.ar        1 PGI      -0.0602
     19 C12        -0.4834    8.3161   14.4043 C.ar        1 PGI      -0.0686
     20 C15         1.4106    6.2626   14.1226 C.ar        1 PGI      -0.0602
     21 C16         0.6548    6.3669   15.3057 C.ar        1 PGI      -0.0686
     22 C11        -0.3044    7.3854   15.4401 C.ar        1 PGI      -0.0687
     23 H1         -4.6320    9.9443    7.9256 H           1 PGI       0.2095
     24 H2         -2.0227    9.5189    6.8993 H           1 PGI       0.0589
     25 H3         -2.9860    8.3659    7.8323 H           1 PGI       0.0589
     26 H4         -3.0000    9.8120    9.7630 H           1 PGI       0.0699
     27 H5         -2.9744   12.0623    8.3876 H           1 PGI       0.0654
     28 H6         -1.6081   11.6165   10.8131 H           1 PGI       0.2100
     29 H7         -0.7846   13.2182    8.4015 H           1 PGI       0.0675
     30 H8         -0.0143   12.3240    6.5502 H           1 PGI       0.2103
     31 H9          1.2897   11.5664    8.3561 H           1 PGI       0.0858
     32 H10         0.0647   12.8950   10.3787 H           1 PGI       0.2138
     33 H11        -1.5148    7.4759    9.8763 H           1 PGI       0.0663
     34 H12         1.9508    6.5212    9.7250 H           1 PGI       0.0392
     35 H13         0.5435    6.0302   10.6660 H           1 PGI       0.0392
     36 H14         2.6577    7.9909   11.7266 H           1 PGI       0.0442
     37 H15         2.7610    6.2506   11.9031 H           1 PGI       0.0442
     38 H16         0.1692    8.9453   12.5252 H           1 PGI       0.0557
     39 H17        -1.1730    9.0646   14.5036 H           1 PGI       0.0599
     40 H18         2.1120    5.5188   14.0556 H           1 PGI       0.0557
     41 H19         0.8075    5.7062   16.0731 H           1 PGI       0.0599
     42 H20        -0.8579    7.4601   16.2952 H           1 PGI       0.0559
@<TRIPOS>BOND
     1     1     2   1
     2     2     3   1
     3     3     4   1
     4     3    10   1
     5     4     5   1
     6     4     6   1
     7     6     7   1
     8     6     8   1
     9     8     9   1
    10     8    14   1
    11    10    11   1
    12    10    14   1
    13    11    12   2
    14    12    13   1
    15    12    15   1
    16    13    14   2
    17    15    16   1
    18    16    17   1
    19    17    18  ar
    20    17    20  ar
    21    18    19  ar
    22    19    22  ar
    23    20    21  ar
    24    21    22  ar
    25     1    23   1
    26     2    24   1
    27     2    25   1
    28     3    26   1
    29     4    27   1
    30     5    28   1
    31     6    29   1
    32     7    30   1
    33     8    31   1
    34     9    32   1
    35    11    33   1
    36    15    34   1
    37    15    35   1
    38    16    36   1
    39    16    37   1
    40    18    38   1
    41    19    39   1
    42    20    40   1
    43    21    41   1
    44    22    42   1
@<TRIPOS>SUBSTRUCTURE
     1  PGI      2

