@<TRIPOS>MOLECULE
2cet_ligand_023
    42    44
SMALL
GAST_HUCK
****
This file was generated by PARSER (from files_GN.cpp)

@<TRIPOS>ATOM
      1 O6         -5.0191    7.5549   17.0699 O.3         1 PGI      -0.3919
      2 C6         -4.2216    6.5900   16.3869 C.3         1 PGI       0.0768
      3 C5         -2.8715    7.1383   15.8261 C.3         1 PGI       0.1168
      4 C4         -2.9887    8.6547   15.4316 C.3         1 PGI       0.1178
      5 O4         -2.8233    9.5104   16.5675 O.3         1 PGI      -0.3858
      6 C3         -1.9087    9.0613   14.3889 C.3         1 PGI       0.1252
      7 O3         -2.0711   10.4263   14.0205 O.3         1 PGI      -0.3839
      8 C2         -1.9750    8.1686   13.1252 C.3         1 PGI       0.1578
      9 O2         -0.8443    8.4191   12.2993 O.3         1 PGI      -0.3700
     10 N1         -2.4103    6.3070   14.7269 N.pl3       1 PGI      -0.2495
     11 C8         -2.2920    4.9639   14.7043 C.2         1 PGI       0.0236
     12 C7         -1.8825    4.5805   13.4335 C.2         1 PGI      -0.0178
     13 N2         -1.7328    5.7038   12.7162 N.2         1 PGI      -0.3315
     14 C1         -2.0133    6.7477   13.5122 C.2         1 PGI       0.1427
     15 C9         -1.8158    3.1923   12.9250 C.3         1 PGI      -0.0191
     16 C10        -1.0987    3.0159   11.5538 C.3         1 PGI      -0.0133
     17 C14        -1.6374    1.8822   10.7544 C.ar        1 PGI      -0.0416
     18 C13        -1.6813    0.5737   11.2948 C.ar        1 PGI      -0.0602
     19 C12        -2.2177   -0.4936   10.5471 C.ar        1 PGI      -0.0686
     20 C15        -2.1315    2.0860    9.4426 C.ar        1 PGI      -0.0602
     21 C16        -2.6695    1.0225    8.6951 C.ar        1 PGI      -0.0686
     22 C11        -2.7182   -0.2677    9.2512 C.ar        1 PGI      -0.0687
     23 H1         -4.5670    7.7142   17.9313 H           1 PGI       0.2095
     24 H2         -4.8201    6.1895   15.5563 H           1 PGI       0.0589
     25 H3         -4.0101    5.7735   17.0945 H           1 PGI       0.0589
     26 H4         -2.1099    7.0673   16.6183 H           1 PGI       0.0699
     27 H5         -3.9770    8.8483   15.0028 H           1 PGI       0.0654
     28 H6         -3.5484    9.2862   17.1842 H           1 PGI       0.2100
     29 H7         -0.9257    8.9618   14.8504 H           1 PGI       0.0675
     30 H8         -1.1983   10.7389   13.6974 H           1 PGI       0.2103
     31 H9         -2.8728    8.3937   12.5524 H           1 PGI       0.0858
     32 H10        -0.0538    8.1978   12.8389 H           1 PGI       0.2138
     33 H11        -2.5237    4.3169   15.4626 H           1 PGI       0.0663
     34 H12        -2.8417    2.8235   12.8704 H           1 PGI       0.0392
     35 H13        -1.2982    2.5812   13.6647 H           1 PGI       0.0392
     36 H14        -0.0322    2.8496   11.7284 H           1 PGI       0.0442
     37 H15        -1.1826    3.9390   10.9771 H           1 PGI       0.0442
     38 H16        -1.3328    0.3870   12.2410 H           1 PGI       0.0557
     39 H17        -2.2652   -1.4345   10.9553 H           1 PGI       0.0599
     40 H18        -2.1272    3.0167    9.0243 H           1 PGI       0.0557
     41 H19        -3.0278    1.1879    7.7513 H           1 PGI       0.0599
     42 H20        -3.1106   -1.0449    8.7109 H           1 PGI       0.0559
@<TRIPOS>BOND
     1     1     2   1
     2     2     3   1
     3     3     4   1
     4     3    10   1
     5     4     5   1
     6     4     6   1
     7     6     7   1
     8     6     8   1
     9     8     9   1
    10     8    14   1
    11    10    11   1
    12    10    14   1
    13    11    12   2
    14    12    13   1
    15    12    15   1
    16    13    14   2
    17    15    16   1
    18    16    17   1
    19    17    18  ar
    20    17    20  ar
    21    18    19  ar
    22    19    22  ar
    23    20    21  ar
    24    21    22  ar
    25     1    23   1
    26     2    24   1
    27     2    25   1
    28     3    26   1
    29     4    27   1
    30     5    28   1
    31     6    29   1
    32     7    30   1
    33     8    31   1
    34     9    32   1
    35    11    33   1
    36    15    34   1
    37    15    35   1
    38    16    36   1
    39    16    37   1
    40    18    38   1
    41    19    39   1
    42    20    40   1
    43    21    41   1
    44    22    42   1
@<TRIPOS>SUBSTRUCTURE
     1  PGI      2

