@<TRIPOS>MOLECULE
2cet_ligand_010
    42    44
SMALL
GAST_HUCK
****
This file was generated by PARSER (from files_GN.cpp)

@<TRIPOS>ATOM
      1 O6          3.3637    1.3554    9.6085 O.3         1 PGI      -0.3919
      2 C6          2.9355    2.4439    8.7937 C.3         1 PGI       0.0768
      3 C5          1.3756    2.4846    8.6515 C.3         1 PGI       0.1168
      4 C4          0.8489    2.0907    7.2248 C.3         1 PGI       0.1178
      5 O4         -0.4615    1.5287    7.3407 O.3         1 PGI      -0.3858
      6 C3          0.7835    3.3084    6.2511 C.3         1 PGI       0.1252
      7 O3          2.0982    3.7176    5.8681 O.3         1 PGI      -0.3839
      8 C2          0.0068    4.5201    6.8451 C.3         1 PGI       0.1578
      9 O2         -1.3959    4.3499    6.6588 O.3         1 PGI      -0.3700
     10 N1          0.8514    3.7615    9.0739 N.pl3       1 PGI      -0.2495
     11 C8          0.8590    4.2555   10.3235 C.2         1 PGI       0.0236
     12 C7          0.2799    5.5195   10.2876 C.2         1 PGI      -0.0178
     13 N2         -0.0945    5.7564    9.0223 N.2         1 PGI      -0.3315
     14 C1          0.2645    4.6878    8.2887 C.2         1 PGI       0.1427
     15 C9          0.1235    6.4476   11.4270 C.3         1 PGI      -0.0191
     16 C10         0.9829    7.7415   11.2954 C.3         1 PGI      -0.0133
     17 C14         0.2338    8.8984   10.7314 C.ar        1 PGI      -0.0416
     18 C13        -0.4946    9.7568   11.5901 C.ar        1 PGI      -0.0602
     19 C12        -1.2320   10.8346   11.0718 C.ar        1 PGI      -0.0686
     20 C15         0.2115    9.1553    9.3393 C.ar        1 PGI      -0.0602
     21 C16        -0.5439   10.2236    8.8167 C.ar        1 PGI      -0.0686
     22 C11        -1.2686   11.0634    9.6846 C.ar        1 PGI      -0.0687
     23 H1          2.9939    1.5424   10.4998 H           1 PGI       0.2095
     24 H2          3.4264    2.3388    7.8255 H           1 PGI       0.0589
     25 H3          3.3238    3.3569    9.2520 H           1 PGI       0.0589
     26 H4          0.9688    1.7384    9.3434 H           1 PGI       0.0699
     27 H5          1.4853    1.3118    6.7929 H           1 PGI       0.0654
     28 H6         -0.6602    1.1258    6.4675 H           1 PGI       0.2100
     29 H7          0.2929    2.9946    5.3261 H           1 PGI       0.0675
     30 H8          2.5236    4.0592    6.6839 H           1 PGI       0.2103
     31 H9          0.3064    5.4302    6.3147 H           1 PGI       0.0858
     32 H10        -1.7638    5.2572    6.7071 H           1 PGI       0.2138
     33 H11         1.2347    3.7923   11.1553 H           1 PGI       0.0663
     34 H12         0.4250    5.9278   12.3406 H           1 PGI       0.0392
     35 H13        -0.9369    6.6900   11.5340 H           1 PGI       0.0392
     36 H14         1.8792    7.5510   10.6965 H           1 PGI       0.0442
     37 H15         1.3490    8.0096   12.2914 H           1 PGI       0.0442
     38 H16        -0.4972    9.5986   12.6003 H           1 PGI       0.0557
     39 H17        -1.7494   11.4496   11.7053 H           1 PGI       0.0599
     40 H18         0.7410    8.5654    8.6945 H           1 PGI       0.0557
     41 H19        -0.5677   10.3895    7.8088 H           1 PGI       0.0599
     42 H20        -1.8206   11.8383    9.3055 H           1 PGI       0.0559
@<TRIPOS>BOND
     1     1     2   1
     2     2     3   1
     3     3     4   1
     4     3    10   1
     5     4     5   1
     6     4     6   1
     7     6     7   1
     8     6     8   1
     9     8     9   1
    10     8    14   1
    11    10    11   1
    12    10    14   1
    13    11    12   2
    14    12    13   1
    15    12    15   1
    16    13    14   2
    17    15    16   1
    18    16    17   1
    19    17    18  ar
    20    17    20  ar
    21    18    19  ar
    22    19    22  ar
    23    20    21  ar
    24    21    22  ar
    25     1    23   1
    26     2    24   1
    27     2    25   1
    28     3    26   1
    29     4    27   1
    30     5    28   1
    31     6    29   1
    32     7    30   1
    33     8    31   1
    34     9    32   1
    35    11    33   1
    36    15    34   1
    37    15    35   1
    38    16    36   1
    39    16    37   1
    40    18    38   1
    41    19    39   1
    42    20    40   1
    43    21    41   1
    44    22    42   1
@<TRIPOS>SUBSTRUCTURE
     1  PGI      2

