@<TRIPOS>MOLECULE
2cet_ligand_021
    42    44
SMALL
GAST_HUCK
****
This file was generated by PARSER (from files_GN.cpp)

@<TRIPOS>ATOM
      1 O6          3.3370    1.4056    9.6240 O.3         1 PGI      -0.3919
      2 C6          2.8842    2.4790    8.8027 C.3         1 PGI       0.0768
      3 C5          1.3240    2.4607    8.6360 C.3         1 PGI       0.1168
      4 C4          0.8459    2.1456    7.1739 C.3         1 PGI       0.1178
      5 O4         -0.4481    1.5437    7.2159 O.3         1 PGI      -0.3858
      6 C3          0.7867    3.4256    6.2848 C.3         1 PGI       0.1252
      7 O3          2.1010    3.8979    5.9908 O.3         1 PGI      -0.3839
      8 C2         -0.0543    4.5718    6.9302 C.3         1 PGI       0.1578
      9 O2         -1.4361    4.3829    6.6377 O.3         1 PGI      -0.3700
     10 N1          0.7434    3.6849    9.1297 N.pl3       1 PGI      -0.2495
     11 C8          0.7430    4.0991   10.4023 C.2         1 PGI       0.0236
     12 C7          0.0985    5.3318   10.4601 C.2         1 PGI      -0.0178
     13 N2         -0.2789    5.6334    9.2046 N.2         1 PGI      -0.3315
     14 C1          0.1265    4.6347    8.3987 C.2         1 PGI       0.1427
     15 C9         -0.1374    6.2051   11.6347 C.3         1 PGI      -0.0191
     16 C10         0.9965    6.2369   12.7175 C.3         1 PGI      -0.0133
     17 C14         0.8163    5.3976   13.9472 C.ar        1 PGI      -0.0416
     18 C13         0.1568    4.1422   13.9323 C.ar        1 PGI      -0.0602
     19 C12         0.0475    3.3595   15.0922 C.ar        1 PGI      -0.0686
     20 C15         1.3670    5.8348   15.1791 C.ar        1 PGI      -0.0602
     21 C16         1.2511    5.0575   16.3470 C.ar        1 PGI      -0.0686
     22 C11         0.5973    3.8155   16.3004 C.ar        1 PGI      -0.0687
     23 H1          3.0926    1.6638   10.5381 H           1 PGI       0.2095
     24 H2          3.3929    2.3939    7.8427 H           1 PGI       0.0589
     25 H3          3.2283    3.4067    9.2650 H           1 PGI       0.0589
     26 H4          0.9311    1.6538    9.2659 H           1 PGI       0.0699
     27 H5          1.5183    1.4122    6.7123 H           1 PGI       0.0654
     28 H6         -0.5790    1.1222    6.3366 H           1 PGI       0.2100
     29 H7          0.3480    3.1613    5.3199 H           1 PGI       0.0675
     30 H8          2.4763    4.2201    6.8347 H           1 PGI       0.2103
     31 H9          0.2586    5.5243    6.4930 H           1 PGI       0.0858
     32 H10        -1.7980    5.2896    6.5610 H           1 PGI       0.2138
     33 H11         1.1756    3.6056   11.1854 H           1 PGI       0.0663
     34 H12        -1.0932    5.9192   12.0908 H           1 PGI       0.0392
     35 H13        -0.2749    7.2158   11.2599 H           1 PGI       0.0392
     36 H14         1.1060    7.2765   13.0254 H           1 PGI       0.0442
     37 H15         1.9528    5.9537   12.2650 H           1 PGI       0.0442
     38 H16        -0.2643    3.7831   13.0770 H           1 PGI       0.0557
     39 H17        -0.4349    2.4584   15.0592 H           1 PGI       0.0599
     40 H18         1.8622    6.7300   15.2384 H           1 PGI       0.0557
     41 H19         1.6486    5.3928   17.2286 H           1 PGI       0.0599
     42 H20         0.5206    3.2444   17.1483 H           1 PGI       0.0559
@<TRIPOS>BOND
     1     1     2   1
     2     2     3   1
     3     3     4   1
     4     3    10   1
     5     4     5   1
     6     4     6   1
     7     6     7   1
     8     6     8   1
     9     8     9   1
    10     8    14   1
    11    10    11   1
    12    10    14   1
    13    11    12   2
    14    12    13   1
    15    12    15   1
    16    13    14   2
    17    15    16   1
    18    16    17   1
    19    17    18  ar
    20    17    20  ar
    21    18    19  ar
    22    19    22  ar
    23    20    21  ar
    24    21    22  ar
    25     1    23   1
    26     2    24   1
    27     2    25   1
    28     3    26   1
    29     4    27   1
    30     5    28   1
    31     6    29   1
    32     7    30   1
    33     8    31   1
    34     9    32   1
    35    11    33   1
    36    15    34   1
    37    15    35   1
    38    16    36   1
    39    16    37   1
    40    18    38   1
    41    19    39   1
    42    20    40   1
    43    21    41   1
    44    22    42   1
@<TRIPOS>SUBSTRUCTURE
     1  PGI      2

