@<TRIPOS>MOLECULE
2cet_ligand_024
    42    44
SMALL
GAST_HUCK
****
This file was generated by PARSER (from files_GN.cpp)

@<TRIPOS>ATOM
      1 O6         -3.9782    4.3814   13.9136 O.3         1 PGI      -0.3919
      2 C6         -2.7293    4.3583   14.6168 C.3         1 PGI       0.0768
      3 C5         -2.4862    5.6692   15.4243 C.3         1 PGI       0.1168
      4 C4         -3.7371    5.9845   16.3181 C.3         1 PGI       0.1178
      5 O4         -3.8099    5.1117   17.4507 O.3         1 PGI      -0.3858
      6 C3         -3.7088    7.4448   16.8490 C.3         1 PGI       0.1252
      7 O3         -4.9402    7.7138   17.5300 O.3         1 PGI      -0.3839
      8 C2         -3.5220    8.5048   15.7295 C.3         1 PGI       0.1578
      9 O2         -3.0486    9.7136   16.3280 O.3         1 PGI      -0.3700
     10 N1         -2.0951    6.7878   14.5942 N.pl3       1 PGI      -0.2495
     11 C8         -1.1462    6.8139   13.6466 C.2         1 PGI       0.0236
     12 C7         -1.0869    8.1027   13.1397 C.2         1 PGI      -0.0178
     13 N2         -1.9644    8.8540   13.8139 N.2         1 PGI      -0.3315
     14 C1         -2.5634    8.0493   14.7031 C.2         1 PGI       0.1427
     15 C9         -0.1296    8.6084   12.1343 C.3         1 PGI      -0.0191
     16 C10        -0.6481    8.5443   10.6604 C.3         1 PGI      -0.0133
     17 C14        -0.7751    9.8741   10.0069 C.ar        1 PGI      -0.0416
     18 C13        -2.0169   10.3308    9.5054 C.ar        1 PGI      -0.0602
     19 C12        -2.1228   11.5761    8.8558 C.ar        1 PGI      -0.0686
     20 C15         0.3570   10.7108    9.8439 C.ar        1 PGI      -0.0602
     21 C16         0.2513   11.9657    9.2094 C.ar        1 PGI      -0.0686
     22 C11        -0.9910   12.3986    8.7129 C.ar        1 PGI      -0.0687
     23 H1         -4.1685    3.4427   13.7232 H           1 PGI       0.2095
     24 H2         -1.9344    4.2071   13.8749 H           1 PGI       0.0589
     25 H3         -2.7237    3.5021   15.2897 H           1 PGI       0.0589
     26 H4         -1.6438    5.4786   16.0951 H           1 PGI       0.0699
     27 H5         -4.6612    5.8633   15.7297 H           1 PGI       0.0654
     28 H6         -4.2161    4.2763   17.1299 H           1 PGI       0.2100
     29 H7         -2.8833    7.5330   17.5592 H           1 PGI       0.0675
     30 H8         -4.8463    7.2918   18.4072 H           1 PGI       0.2103
     31 H9         -4.4844    8.6951   15.2489 H           1 PGI       0.0858
     32 H10        -3.6534   10.4169   15.9831 H           1 PGI       0.2138
     33 H11        -0.5515    6.0374   13.3620 H           1 PGI       0.0663
     34 H12         0.8001    8.0317   12.2095 H           1 PGI       0.0392
     35 H13         0.1327    9.6374   12.4209 H           1 PGI       0.0392
     36 H14        -1.5967    8.0025   10.6251 H           1 PGI       0.0442
     37 H15         0.0560    7.9576   10.0661 H           1 PGI       0.0442
     38 H16        -2.8600    9.7551    9.5988 H           1 PGI       0.0557
     39 H17        -3.0275   11.8901    8.4863 H           1 PGI       0.0599
     40 H18         1.2708   10.4137   10.1929 H           1 PGI       0.0557
     41 H19         1.0800   12.5620    9.1059 H           1 PGI       0.0599
     42 H20        -1.0709   13.3067    8.2496 H           1 PGI       0.0559
@<TRIPOS>BOND
     1     1     2   1
     2     2     3   1
     3     3     4   1
     4     3    10   1
     5     4     5   1
     6     4     6   1
     7     6     7   1
     8     6     8   1
     9     8     9   1
    10     8    14   1
    11    10    11   1
    12    10    14   1
    13    11    12   2
    14    12    13   1
    15    12    15   1
    16    13    14   2
    17    15    16   1
    18    16    17   1
    19    17    18  ar
    20    17    20  ar
    21    18    19  ar
    22    19    22  ar
    23    20    21  ar
    24    21    22  ar
    25     1    23   1
    26     2    24   1
    27     2    25   1
    28     3    26   1
    29     4    27   1
    30     5    28   1
    31     6    29   1
    32     7    30   1
    33     8    31   1
    34     9    32   1
    35    11    33   1
    36    15    34   1
    37    15    35   1
    38    16    36   1
    39    16    37   1
    40    18    38   1
    41    19    39   1
    42    20    40   1
    43    21    41   1
    44    22    42   1
@<TRIPOS>SUBSTRUCTURE
     1  PGI      2

