@<TRIPOS>MOLECULE
2cet_ligand_016
    42    44
SMALL
GAST_HUCK
****
This file was generated by PARSER (from files_GN.cpp)

@<TRIPOS>ATOM
      1 O6         -5.0311    7.4930   17.1156 O.3         1 PGI      -0.3919
      2 C6         -4.1713    6.4944   16.5743 C.3         1 PGI       0.0768
      3 C5         -2.8602    7.0366   15.9116 C.3         1 PGI       0.1168
      4 C4         -3.0018    8.5444   15.5079 C.3         1 PGI       0.1178
      5 O4         -2.9046    9.3886   16.6549 O.3         1 PGI      -0.3858
      6 C3         -1.9170    8.9695   14.4819 C.3         1 PGI       0.1252
      7 O3         -2.0658   10.3544   14.1726 O.3         1 PGI      -0.3839
      8 C2         -2.0084    8.0964   13.1977 C.3         1 PGI       0.1578
      9 O2         -0.8556    8.3176   12.3884 O.3         1 PGI      -0.3700
     10 N1         -2.4610    6.2145   14.7815 N.pl3       1 PGI      -0.2495
     11 C8         -2.3651    4.8742   14.7245 C.2         1 PGI       0.0236
     12 C7         -2.0428    4.5213   13.4211 C.2         1 PGI      -0.0178
     13 N2         -1.8818    5.6469   12.7160 N.2         1 PGI      -0.3315
     14 C1         -2.1114    6.6696   13.5550 C.2         1 PGI       0.1427
     15 C9         -1.9023    3.1531   12.8889 C.3         1 PGI      -0.0191
     16 C10        -0.5592    2.4950   13.2994 C.3         1 PGI      -0.0133
     17 C14         0.6307    3.2036   12.7389 C.ar        1 PGI      -0.0416
     18 C13         1.4297    4.0387   13.5545 C.ar        1 PGI      -0.0602
     19 C12         2.5293    4.7314   13.0119 C.ar        1 PGI      -0.0686
     20 C15         0.9544    3.0756   11.3703 C.ar        1 PGI      -0.0602
     21 C16         2.0595    3.7655   10.8257 C.ar        1 PGI      -0.0686
     22 C11         2.8418    4.5926   11.6466 C.ar        1 PGI      -0.0687
     23 H1         -4.6389    7.7517   17.9715 H           1 PGI       0.2095
     24 H2         -4.7573    5.9489   15.8351 H           1 PGI       0.0589
     25 H3         -3.9148    5.8101   17.3813 H           1 PGI       0.0589
     26 H4         -2.0524    6.9626   16.6481 H           1 PGI       0.0699
     27 H5         -3.9792    8.6960   15.0436 H           1 PGI       0.0654
     28 H6         -3.7630    9.8537   16.7050 H           1 PGI       0.2100
     29 H7         -0.9313    8.8358   14.9464 H           1 PGI       0.0675
     30 H8         -1.1712   10.6560   13.9145 H           1 PGI       0.2103
     31 H9         -2.8942    8.3675   12.6168 H           1 PGI       0.0858
     32 H10        -0.0968    8.0467   12.9466 H           1 PGI       0.2138
     33 H11        -2.5480    4.2231   15.4924 H           1 PGI       0.0663
     34 H12        -1.9894    3.1727   11.8004 H           1 PGI       0.0392
     35 H13        -2.7330    2.5487   13.2665 H           1 PGI       0.0392
     36 H14        -0.5503    1.4571   12.9497 H           1 PGI       0.0442
     37 H15        -0.5079    2.4543   14.3914 H           1 PGI       0.0442
     38 H16         1.2108    4.1618   14.5461 H           1 PGI       0.0557
     39 H17         3.0994    5.3335   13.6067 H           1 PGI       0.0599
     40 H18         0.3940    2.4804   10.7567 H           1 PGI       0.0557
     41 H19         2.2863    3.6641    9.8356 H           1 PGI       0.0599
     42 H20         3.6427    5.0943   11.2525 H           1 PGI       0.0559
@<TRIPOS>BOND
     1     1     2   1
     2     2     3   1
     3     3     4   1
     4     3    10   1
     5     4     5   1
     6     4     6   1
     7     6     7   1
     8     6     8   1
     9     8     9   1
    10     8    14   1
    11    10    11   1
    12    10    14   1
    13    11    12   2
    14    12    13   1
    15    12    15   1
    16    13    14   2
    17    15    16   1
    18    16    17   1
    19    17    18  ar
    20    17    20  ar
    21    18    19  ar
    22    19    22  ar
    23    20    21  ar
    24    21    22  ar
    25     1    23   1
    26     2    24   1
    27     2    25   1
    28     3    26   1
    29     4    27   1
    30     5    28   1
    31     6    29   1
    32     7    30   1
    33     8    31   1
    34     9    32   1
    35    11    33   1
    36    15    34   1
    37    15    35   1
    38    16    36   1
    39    16    37   1
    40    18    38   1
    41    19    39   1
    42    20    40   1
    43    21    41   1
    44    22    42   1
@<TRIPOS>SUBSTRUCTURE
     1  PGI      2

