@<TRIPOS>MOLECULE
2cet_ligand_008
    42    44
SMALL
GAST_HUCK
****
This file was generated by PARSER (from files_GN.cpp)

@<TRIPOS>ATOM
      1 O6         -2.0407    9.8773   14.0968 O.3         1 PGI      -0.3919
      2 C6         -2.4525    9.2414   15.3140 C.3         1 PGI       0.0768
      3 C5         -3.1620    7.8747   15.0630 C.3         1 PGI       0.1168
      4 C4         -3.6220    7.2577   16.4288 C.3         1 PGI       0.1178
      5 O4         -4.8012    7.9029   16.9115 O.3         1 PGI      -0.3858
      6 C3         -3.9280    5.7459   16.2991 C.3         1 PGI       0.1252
      7 O3         -4.3459    5.2188   17.5633 O.3         1 PGI      -0.3839
      8 C2         -2.6846    4.9666   15.7870 C.3         1 PGI       0.1578
      9 O2         -3.0672    3.6313   15.4378 O.3         1 PGI      -0.3700
     10 N1         -2.3478    6.9459   14.2945 N.pl3       1 PGI      -0.2495
     11 C8         -1.7717    7.1498   13.0938 C.2         1 PGI       0.0236
     12 C7         -1.1370    5.9713   12.7040 C.2         1 PGI      -0.0178
     13 N2         -1.3612    5.0634   13.6647 N.2         1 PGI      -0.3315
     14 C1         -2.1088    5.6533   14.6155 C.2         1 PGI       0.1427
     15 C9         -0.4186    5.6724   11.4433 C.3         1 PGI      -0.0191
     16 C10        -0.7111    6.6590   10.2782 C.3         1 PGI      -0.0133
     17 C14        -0.3082    6.1121    8.9567 C.ar        1 PGI      -0.0416
     18 C13        -1.1584    5.2145    8.2654 C.ar        1 PGI      -0.0602
     19 C12        -0.7948    4.7004    7.0044 C.ar        1 PGI      -0.0686
     20 C15         0.9245    6.4687    8.3627 C.ar        1 PGI      -0.0602
     21 C16         1.2888    5.9506    7.1028 C.ar        1 PGI      -0.0686
     22 C11         0.4234    5.0720    6.4233 C.ar        1 PGI      -0.0687
     23 H1         -1.2215   10.3944   14.3264 H           1 PGI       0.2095
     24 H2         -3.1251    9.9320   15.8259 H           1 PGI       0.0589
     25 H3         -1.5702    9.0822   15.9448 H           1 PGI       0.0589
     26 H4         -4.0584    8.0679   14.4610 H           1 PGI       0.0699
     27 H5         -2.8298    7.3896   17.1688 H           1 PGI       0.0654
     28 H6         -4.6365    8.0560   17.8750 H           1 PGI       0.2100
     29 H7         -4.7499    5.6136   15.5827 H           1 PGI       0.0675
     30 H8         -5.2667    4.9029   17.4112 H           1 PGI       0.2103
     31 H9         -1.9190    4.9130   16.5679 H           1 PGI       0.0858
     32 H10        -3.5290    3.2794   16.2293 H           1 PGI       0.2138
     33 H11        -1.8106    8.0017   12.5429 H           1 PGI       0.0663
     34 H12        -0.7112    4.6570   11.1358 H           1 PGI       0.0392
     35 H13         0.6485    5.6543   11.6563 H           1 PGI       0.0392
     36 H14        -0.1898    7.6024   10.4720 H           1 PGI       0.0442
     37 H15        -1.7787    6.8925   10.2509 H           1 PGI       0.0442
     38 H16        -2.0557    4.9388    8.6717 H           1 PGI       0.0557
     39 H17        -1.4212    4.0651    6.5160 H           1 PGI       0.0599
     40 H18         1.5684    7.1110    8.8394 H           1 PGI       0.0557
     41 H19         2.1865    6.2130    6.6851 H           1 PGI       0.0599
     42 H20         0.6959    4.6984    5.5106 H           1 PGI       0.0559
@<TRIPOS>BOND
     1     1     2   1
     2     2     3   1
     3     3     4   1
     4     3    10   1
     5     4     5   1
     6     4     6   1
     7     6     7   1
     8     6     8   1
     9     8     9   1
    10     8    14   1
    11    10    11   1
    12    10    14   1
    13    11    12   2
    14    12    13   1
    15    12    15   1
    16    13    14   2
    17    15    16   1
    18    16    17   1
    19    17    18  ar
    20    17    20  ar
    21    18    19  ar
    22    19    22  ar
    23    20    21  ar
    24    21    22  ar
    25     1    23   1
    26     2    24   1
    27     2    25   1
    28     3    26   1
    29     4    27   1
    30     5    28   1
    31     6    29   1
    32     7    30   1
    33     8    31   1
    34     9    32   1
    35    11    33   1
    36    15    34   1
    37    15    35   1
    38    16    36   1
    39    16    37   1
    40    18    38   1
    41    19    39   1
    42    20    40   1
    43    21    41   1
    44    22    42   1
@<TRIPOS>SUBSTRUCTURE
     1  PGI      2

