@<TRIPOS>MOLECULE
2cet_ligand_012
    42    44
SMALL
GAST_HUCK
****
This file was generated by PARSER (from files_GN.cpp)

@<TRIPOS>ATOM
      1 O6         -3.6584   10.2463    7.3279 O.3         1 PGI      -0.3919
      2 C6         -3.4708    9.6445    8.6144 C.3         1 PGI       0.0768
      3 C5         -2.2255   10.1648    9.4176 C.3         1 PGI       0.1168
      4 C4         -1.1675   10.8689    8.4952 C.3         1 PGI       0.1178
      5 O4         -1.5851   12.2090    8.2000 O.3         1 PGI      -0.3858
      6 C3          0.2528   10.8948    9.1213 C.3         1 PGI       0.1252
      7 O3          1.1811   11.4564    8.1943 O.3         1 PGI      -0.3839
      8 C2          0.7106    9.4562    9.4818 C.3         1 PGI       0.1578
      9 O2          1.9062    9.4873   10.2550 O.3         1 PGI      -0.3700
     10 N1         -1.6414    9.0969   10.2073 N.pl3       1 PGI      -0.2495
     11 C8         -2.2788    8.2493   11.0384 C.2         1 PGI       0.0236
     12 C7         -1.3502    7.3374   11.5371 C.2         1 PGI      -0.0178
     13 N2         -0.1599    7.6746   11.0213 N.2         1 PGI      -0.3315
     14 C1         -0.3372    8.7591   10.2476 C.2         1 PGI       0.1427
     15 C9         -1.5935    6.0811   12.2747 C.3         1 PGI      -0.0191
     16 C10        -2.7534    6.0814   13.3099 C.3         1 PGI      -0.0133
     17 C14        -2.3372    6.5615   14.6547 C.ar        1 PGI      -0.0416
     18 C13        -2.1231    7.9401   14.8986 C.ar        1 PGI      -0.0602
     19 C12        -1.7297    8.3849   16.1740 C.ar        1 PGI      -0.0686
     20 C15        -2.1633    5.6417   15.7171 C.ar        1 PGI      -0.0602
     21 C16        -1.7696    6.0890   16.9900 C.ar        1 PGI      -0.0686
     22 C11        -1.5524    7.4597   17.2204 C.ar        1 PGI      -0.0687
     23 H1         -3.1080    9.7081    6.7045 H           1 PGI       0.2095
     24 H2         -3.3863    8.5598    8.4561 H           1 PGI       0.0589
     25 H3         -4.3813    9.8424    9.1960 H           1 PGI       0.0589
     26 H4         -2.5851   10.9216   10.1308 H           1 PGI       0.0699
     27 H5         -1.1020   10.3195    7.5504 H           1 PGI       0.0654
     28 H6         -1.6038   12.6647    9.0701 H           1 PGI       0.2100
     29 H7          0.2427   11.5073   10.0287 H           1 PGI       0.0675
     30 H8          1.4281   12.3597    8.5210 H           1 PGI       0.2103
     31 H9          0.9123    8.8727    8.5771 H           1 PGI       0.0858
     32 H10         1.6523    9.8498   11.1263 H           1 PGI       0.2138
     33 H11        -3.2919    8.2292   11.2153 H           1 PGI       0.0663
     34 H12        -0.6637    5.7805   12.7698 H           1 PGI       0.0392
     35 H13        -1.7987    5.3293   11.5068 H           1 PGI       0.0392
     36 H14        -3.1223    5.0479   13.3788 H           1 PGI       0.0442
     37 H15        -3.5945    6.6855   12.9522 H           1 PGI       0.0442
     38 H16        -2.2472    8.6271   14.1539 H           1 PGI       0.0557
     39 H17        -1.5670    9.3821   16.3410 H           1 PGI       0.0599
     40 H18        -2.3100    4.6386   15.5713 H           1 PGI       0.0557
     41 H19        -1.6329    5.4185   17.7480 H           1 PGI       0.0599
     42 H20        -1.2580    7.7791   18.1505 H           1 PGI       0.0559
@<TRIPOS>BOND
     1     1     2   1
     2     2     3   1
     3     3     4   1
     4     3    10   1
     5     4     5   1
     6     4     6   1
     7     6     7   1
     8     6     8   1
     9     8     9   1
    10     8    14   1
    11    10    11   1
    12    10    14   1
    13    11    12   2
    14    12    13   1
    15    12    15   1
    16    13    14   2
    17    15    16   1
    18    16    17   1
    19    17    18  ar
    20    17    20  ar
    21    18    19  ar
    22    19    22  ar
    23    20    21  ar
    24    21    22  ar
    25     1    23   1
    26     2    24   1
    27     2    25   1
    28     3    26   1
    29     4    27   1
    30     5    28   1
    31     6    29   1
    32     7    30   1
    33     8    31   1
    34     9    32   1
    35    11    33   1
    36    15    34   1
    37    15    35   1
    38    16    36   1
    39    16    37   1
    40    18    38   1
    41    19    39   1
    42    20    40   1
    43    21    41   1
    44    22    42   1
@<TRIPOS>SUBSTRUCTURE
     1  PGI      2

