@<TRIPOS>MOLECULE
2cet_ligand_039
    42    44
SMALL
GAST_HUCK
****
This file was generated by PARSER (from files_GN.cpp)

@<TRIPOS>ATOM
      1 O6          0.4095    6.4669   13.6380 O.3         1 PGI      -0.3919
      2 C6          0.4921    7.8237   14.0565 C.3         1 PGI       0.0768
      3 C5         -0.8777    8.4215   14.5079 C.3         1 PGI       0.1168
      4 C4         -1.4313    7.8127   15.8429 C.3         1 PGI       0.1178
      5 O4         -2.1938    8.8177   16.5235 O.3         1 PGI      -0.3858
      6 C3         -2.3370    6.5523   15.6397 C.3         1 PGI       0.1252
      7 O3         -1.5436    5.4013   15.3435 O.3         1 PGI      -0.3839
      8 C2         -3.4294    6.7479   14.5403 C.3         1 PGI       0.1578
      9 O2         -4.5879    7.3668   15.0979 O.3         1 PGI      -0.3700
     10 N1         -1.8526    8.3532   13.4483 N.pl3       1 PGI      -0.2495
     11 C8         -1.8253    9.0477   12.2961 C.2         1 PGI       0.0236
     12 C7         -2.9192    8.6523   11.5291 C.2         1 PGI      -0.0178
     13 N2         -3.6195    7.7754   12.2648 N.2         1 PGI      -0.3315
     14 C1         -2.9678    7.5982   13.4268 C.2         1 PGI       0.1427
     15 C9         -3.2921    9.0896   10.1639 C.3         1 PGI      -0.0191
     16 C10        -2.1360    8.9968    9.1231 C.3         1 PGI      -0.0133
     17 C14        -1.2504   10.1965    9.1353 C.ar        1 PGI      -0.0416
     18 C13         0.0385   10.1623    9.7155 C.ar        1 PGI      -0.0602
     19 C12         0.8074   11.3352    9.8259 C.ar        1 PGI      -0.0686
     20 C15        -1.7172   11.4227    8.5966 C.ar        1 PGI      -0.0602
     21 C16        -0.9348   12.5918    8.6865 C.ar        1 PGI      -0.0686
     22 C11         0.3198   12.5482    9.3165 C.ar        1 PGI      -0.0687
     23 H1         -0.1579    6.4775   12.8394 H           1 PGI       0.2095
     24 H2          0.9071    8.4108   13.2328 H           1 PGI       0.0589
     25 H3          1.2025    7.8789   14.8849 H           1 PGI       0.0589
     26 H4         -0.6892    9.4858   14.6986 H           1 PGI       0.0699
     27 H5         -0.5985    7.5529   16.5025 H           1 PGI       0.0654
     28 H6         -2.5984    8.3605   17.2891 H           1 PGI       0.2100
     29 H7         -2.8309    6.3312   16.5928 H           1 PGI       0.0675
     30 H8         -2.1538    4.6370   15.4372 H           1 PGI       0.2103
     31 H9         -3.7232    5.7783   14.1273 H           1 PGI       0.0858
     32 H10        -5.1195    6.6285   15.4646 H           1 PGI       0.2138
     33 H11        -1.1191    9.7393   12.0400 H           1 PGI       0.0663
     34 H12        -3.6661   10.1134   10.2204 H           1 PGI       0.0392
     35 H13        -4.1243    8.4687    9.8080 H           1 PGI       0.0392
     36 H14        -2.5611    8.8961    8.1181 H           1 PGI       0.0442
     37 H15        -1.5623    8.0814    9.3020 H           1 PGI       0.0442
     38 H16         0.4069    9.2928   10.1086 H           1 PGI       0.0557
     39 H17         1.7157   11.3135   10.2930 H           1 PGI       0.0599
     40 H18        -2.6424   11.4817    8.1647 H           1 PGI       0.0557
     41 H19        -1.2930   13.4726    8.3183 H           1 PGI       0.0599
     42 H20         0.8658   13.4056    9.4147 H           1 PGI       0.0559
@<TRIPOS>BOND
     1     1     2   1
     2     2     3   1
     3     3     4   1
     4     3    10   1
     5     4     5   1
     6     4     6   1
     7     6     7   1
     8     6     8   1
     9     8     9   1
    10     8    14   1
    11    10    11   1
    12    10    14   1
    13    11    12   2
    14    12    13   1
    15    12    15   1
    16    13    14   2
    17    15    16   1
    18    16    17   1
    19    17    18  ar
    20    17    20  ar
    21    18    19  ar
    22    19    22  ar
    23    20    21  ar
    24    21    22  ar
    25     1    23   1
    26     2    24   1
    27     2    25   1
    28     3    26   1
    29     4    27   1
    30     5    28   1
    31     6    29   1
    32     7    30   1
    33     8    31   1
    34     9    32   1
    35    11    33   1
    36    15    34   1
    37    15    35   1
    38    16    36   1
    39    16    37   1
    40    18    38   1
    41    19    39   1
    42    20    40   1
    43    21    41   1
    44    22    42   1
@<TRIPOS>SUBSTRUCTURE
     1  PGI      2

