@<TRIPOS>MOLECULE
2d1o_ligand_066
    77    77
SMALL
GAST_HUCK
****
This file was generated by PARSER (from files_GN.cpp)

@<TRIPOS>ATOM
      1 C1         27.7780   14.1758   24.2270 C.ar        1 FA4      -0.0755
      2 C2         27.8278   13.4831   23.0074 C.ar        1 FA4      -0.0668
      3 C3         27.4038   12.1305   22.8949 C.ar        1 FA4      -0.0377
      4 C4         26.8899   11.4755   24.0683 C.ar        1 FA4      -0.0050
      5 C5         26.8589   12.1947   25.2904 C.ar        1 FA4      -0.0635
      6 C6         27.3055   13.5224   25.3758 C.ar        1 FA4      -0.0754
      7 C7         27.4608   11.4993   21.5400 C.3         1 FA4      -0.0215
      8 C8         28.5058   10.3551   21.3556 C.3         1 FA4      -0.0443
      9 C9         29.9100   10.8050   20.8544 C.3         1 FA4      -0.0514
     10 C10        30.7892   11.5175   21.9132 C.3         1 FA4      -0.0529
     11 C11        31.8550   12.4938   21.3260 C.3         1 FA4      -0.0530
     12 C12        32.9867   11.8559   20.4579 C.3         1 FA4      -0.0529
     13 C13        32.6450   11.6705   18.9548 C.3         1 FA4      -0.0510
     14 C14        33.8025   11.0032   18.1571 C.3         1 FA4      -0.0361
     15 C15        33.5826   10.8943   16.6218 C.3         1 FA4       0.0374
     16 C16        32.5674    9.9355   16.2161 C.2         1 FA4       0.1782
     17 N17        32.9003    8.6942   15.8508 N.am        1 FA4      -0.2657
     18 C18        32.0299    7.6711   15.3223 C.3         1 FA4       0.1325
     19 O19        31.3935   10.3079   16.1563 O.2         1 FA4      -0.3969
     20 C20        32.2432    6.2841   16.0336 C.3         1 FA4      -0.0123
     21 C21        32.2566    7.6064   13.8783 C.2         1 FA4       0.2244
     22 N22        33.3350    7.0280   13.3712 N.am        1 FA4      -0.1623
     23 C23        30.9994    5.3280   16.0503 C.3         1 FA4      -0.0440
     24 C24        30.1291    5.2663   14.7588 C.3         1 FA4      -0.0124
     25 C25        29.9565    3.8610   14.1137 C.3         1 FA4      -0.0354
     26 N26        31.2099    3.2418   13.6460 N.4         1 FA4       0.2185
     27 C27        26.4299   10.0490   24.1036 C.3         1 FA4       0.0939
     28 N28        25.5061    9.7594   23.0870 N.pl3       1 FA4      -0.2620
     29 C29        25.3542    8.6554   22.4535 C.cat       1 FA4       0.2900
     30 N30        24.4659    8.5897   21.5314 N.pl3       1 FA4      -0.2847
     31 N31        26.0363    7.5892   22.6560 N.pl3       1 FA4      -0.2847
     32 O32        33.5052    6.8866   12.0857 O.3         1 FA4      -0.2717
     33 O33        31.4264    8.0847   13.1142 O.2         1 FA4      -0.3944
     34 H1         28.1007   15.1457   24.2866 H           1 FA4       0.0541
     35 H2         28.1720   13.9927   22.1887 H           1 FA4       0.0537
     36 H3         26.5134   11.7549   26.1482 H           1 FA4       0.0538
     37 H4         27.2761   14.0202   26.2668 H           1 FA4       0.0541
     38 H5         27.6478   12.2530   20.7633 H           1 FA4       0.0411
     39 H6         26.4677   11.1179   21.3085 H           1 FA4       0.0411
     40 H7         28.1070    9.6764   20.5937 H           1 FA4       0.0286
     41 H8         28.6243    9.7675   22.2721 H           1 FA4       0.0286
     42 H9         29.7815   11.4598   19.9858 H           1 FA4       0.0267
     43 H10        30.4484    9.9113   20.5242 H           1 FA4       0.0267
     44 H11        31.2990   10.7641   22.5256 H           1 FA4       0.0265
     45 H12        30.1534   12.1046   22.5786 H           1 FA4       0.0265
     46 H13        32.3328   12.9846   22.1814 H           1 FA4       0.0265
     47 H14        31.3513   13.2857   20.7533 H           1 FA4       0.0265
     48 H15        33.2963   10.8985   20.8995 H           1 FA4       0.0265
     49 H16        33.8582   12.5230   20.5019 H           1 FA4       0.0265
     50 H17        32.4328   12.6560   18.5130 H           1 FA4       0.0267
     51 H18        31.7454   11.0513   18.8645 H           1 FA4       0.0267
     52 H19        33.9893    9.9988   18.5556 H           1 FA4       0.0290
     53 H20        34.7073   11.6016   18.3259 H           1 FA4       0.0290
     54 H21        34.5464   10.6243   16.1719 H           1 FA4       0.0502
     55 H22        33.3154   11.8795   16.2239 H           1 FA4       0.0502
     56 H23        33.8457    8.4669   15.8893 H           1 FA4       0.1882
     57 H24        30.9884    7.9610   15.4969 H           1 FA4       0.0799
     58 H25        32.4868    6.4703   17.0850 H           1 FA4       0.0312
     59 H26        33.0940    5.7433   15.6037 H           1 FA4       0.0312
     60 H27        34.0065    6.6434   13.9547 H           1 FA4       0.2217
     61 H28        30.3596    5.6369   16.8926 H           1 FA4       0.0269
     62 H29        31.3584    4.3136   16.2947 H           1 FA4       0.0269
     63 H30        30.5064    5.9571   14.0017 H           1 FA4       0.0317
     64 H31        29.1175    5.6110   15.0321 H           1 FA4       0.0317
     65 H32        29.2878    3.9632   13.2555 H           1 FA4       0.0813
     66 H33        29.4872    3.1823   14.8377 H           1 FA4       0.0813
     67 H34        30.9665    2.3680   13.1581 H           1 FA4       0.1994
     68 H35        31.8076    3.0398   14.4560 H           1 FA4       0.1994
     69 H36        31.7131    3.8559   12.9967 H           1 FA4       0.1994
     70 H37        25.9232    9.8135   25.0538 H           1 FA4       0.0839
     71 H38        27.3117    9.4081   24.0572 H           1 FA4       0.0839
     72 H39        24.8946   10.4350   22.8700 H           1 FA4       0.2664
     73 H40        24.3743    7.7972   21.0379 H           1 FA4       0.2615
     74 H41        23.9356    9.3351   21.3304 H           1 FA4       0.2615
     75 H42        26.7000    7.5702   23.3099 H           1 FA4       0.2615
     76 H43        25.8947    6.8346   22.1244 H           1 FA4       0.2615
     77 H44        33.9002    5.9959   11.9742 H           1 FA4       0.2490
@<TRIPOS>BOND
     1     1     2  ar
     2     1     6  ar
     3     2     3  ar
     4     3     4  ar
     5     3     7   1
     6     4     5  ar
     7     4    27   1
     8     5     6  ar
     9     7     8   1
    10     8     9   1
    11     9    10   1
    12    10    11   1
    13    11    12   1
    14    12    13   1
    15    13    14   1
    16    14    15   1
    17    15    16   1
    18    16    17  am
    19    16    19   2
    20    17    18   1
    21    18    20   1
    22    18    21   1
    23    20    23   1
    24    21    22  am
    25    21    33   2
    26    22    32   1
    27    23    24   1
    28    24    25   1
    29    25    26   1
    30    27    28   1
    31    28    29  ar
    32    29    30  ar
    33    29    31  ar
    34     1    34   1
    35     2    35   1
    36     5    36   1
    37     6    37   1
    38     7    38   1
    39     7    39   1
    40     8    40   1
    41     8    41   1
    42     9    42   1
    43     9    43   1
    44    10    44   1
    45    10    45   1
    46    11    46   1
    47    11    47   1
    48    12    48   1
    49    12    49   1
    50    13    50   1
    51    13    51   1
    52    14    52   1
    53    14    53   1
    54    15    54   1
    55    15    55   1
    56    17    56   1
    57    18    57   1
    58    20    58   1
    59    20    59   1
    60    22    60   1
    61    23    61   1
    62    23    62   1
    63    24    63   1
    64    24    64   1
    65    25    65   1
    66    25    66   1
    67    26    67   1
    68    26    68   1
    69    26    69   1
    70    27    70   1
    71    27    71   1
    72    28    72   1
    73    30    73   1
    74    30    74   1
    75    31    75   1
    76    31    76   1
    77    32    77   1
@<TRIPOS>SUBSTRUCTURE
     1  FA4      1

