@<TRIPOS>MOLECULE
2d1o_ligand_020
    77    77
SMALL
GAST_HUCK
****
This file was generated by PARSER (from files_GN.cpp)

@<TRIPOS>ATOM
      1 C1         23.8770    0.4565   12.6551 C.ar        1 FA4      -0.0755
      2 C2         24.9860    1.1987   13.0835 C.ar        1 FA4      -0.0668
      3 C3         24.9558    1.9384   14.2920 C.ar        1 FA4      -0.0377
      4 C4         23.7896    1.8670   15.1138 C.ar        1 FA4      -0.0050
      5 C5         22.6842    1.1126   14.6566 C.ar        1 FA4      -0.0635
      6 C6         22.7201    0.4276   13.4381 C.ar        1 FA4      -0.0754
      7 C7         26.1922    2.7140   14.6239 C.3         1 FA4      -0.0215
      8 C8         26.1316    4.1603   14.0476 C.3         1 FA4      -0.0443
      9 C9         27.0849    5.1719   14.7526 C.3         1 FA4      -0.0514
     10 C10        28.5512    5.1817   14.2353 C.3         1 FA4      -0.0529
     11 C11        29.2818    3.7932   14.2227 C.3         1 FA4      -0.0530
     12 C12        30.8354    3.9064   14.3618 C.3         1 FA4      -0.0529
     13 C13        31.3094    4.1569   15.8271 C.3         1 FA4      -0.0510
     14 C14        32.6115    4.9922   15.9062 C.3         1 FA4      -0.0361
     15 C15        32.3723    6.5227   16.0258 C.3         1 FA4       0.0374
     16 C16        33.5214    7.3062   15.6230 C.2         1 FA4       0.1782
     17 N17        33.4087    8.0761   14.5537 N.am        1 FA4      -0.2657
     18 C18        34.3795    8.9171   13.9203 C.3         1 FA4       0.1325
     19 O19        34.5603    7.2118   16.2613 O.2         1 FA4      -0.3969
     20 C20        33.7352   10.3339   13.8230 C.3         1 FA4      -0.0123
     21 C21        34.6883    8.3244   12.6247 C.2         1 FA4       0.2244
     22 N22        35.9393    8.1932   12.2175 N.am        1 FA4      -0.1623
     23 C23        34.4059   11.3311   12.8474 C.3         1 FA4      -0.0440
     24 C24        33.6782   12.7120   12.8316 C.3         1 FA4      -0.0124
     25 C25        33.9152   13.5255   11.5332 C.3         1 FA4      -0.0354
     26 N26        32.7236   14.3251   11.1975 N.4         1 FA4       0.2185
     27 C27        23.6310    2.6253   16.3953 C.3         1 FA4       0.0939
     28 N28        23.2268    3.9456   16.1327 N.pl3       1 FA4      -0.2620
     29 C29        22.0370    4.3975   15.9627 C.cat       1 FA4       0.2900
     30 N30        21.9173    5.6347   15.6591 N.pl3       1 FA4      -0.2847
     31 N31        20.9598    3.7174   16.0731 N.pl3       1 FA4      -0.2847
     32 O32        36.2909    7.6927   11.0603 O.3         1 FA4      -0.2717
     33 O33        33.7729    7.9698   11.8892 O.2         1 FA4      -0.3944
     34 H1         23.9093   -0.0499   11.7666 H           1 FA4       0.0541
     35 H2         25.8180    1.2185   12.4736 H           1 FA4       0.0537
     36 H3         21.8306    1.0774   15.2007 H           1 FA4       0.0538
     37 H4         21.8960   -0.0968   13.1189 H           1 FA4       0.0541
     38 H5         27.0750    2.1971   14.2046 H           1 FA4       0.0411
     39 H6         26.3683    2.7967   15.7012 H           1 FA4       0.0411
     40 H7         25.1021    4.5273   14.1620 H           1 FA4       0.0286
     41 H8         26.3453    4.1460   12.9728 H           1 FA4       0.0286
     42 H9         27.0949    5.0217   15.8287 H           1 FA4       0.0267
     43 H10        26.6943    6.1741   14.5916 H           1 FA4       0.0267
     44 H11        29.1062    5.9015   14.8434 H           1 FA4       0.0265
     45 H12        28.5649    5.6065   13.2197 H           1 FA4       0.0265
     46 H13        29.0749    3.3085   13.2609 H           1 FA4       0.0265
     47 H14        28.8956    3.1296   15.0198 H           1 FA4       0.0265
     48 H15        31.1951    4.7063   13.6887 H           1 FA4       0.0265
     49 H16        31.2716    2.9595   14.0150 H           1 FA4       0.0265
     50 H17        31.4735    3.1950   16.3158 H           1 FA4       0.0267
     51 H18        30.5328    4.6550   16.4224 H           1 FA4       0.0267
     52 H19        33.2425    4.7505   15.0439 H           1 FA4       0.0290
     53 H20        33.1668    4.6706   16.7925 H           1 FA4       0.0290
     54 H21        32.1074    6.7710   17.0542 H           1 FA4       0.0502
     55 H22        31.5064    6.7933   15.4111 H           1 FA4       0.0502
     56 H23        32.5429    8.0553   14.1215 H           1 FA4       0.1882
     57 H24        35.2892    8.9979   14.5257 H           1 FA4       0.0799
     58 H25        33.7296   10.7799   14.8219 H           1 FA4       0.0312
     59 H26        32.6886   10.2250   13.5124 H           1 FA4       0.0312
     60 H27        36.6440    8.4770   12.8165 H           1 FA4       0.2217
     61 H28        34.3780   10.9130   11.8400 H           1 FA4       0.0269
     62 H29        35.4541   11.4828   13.1206 H           1 FA4       0.0269
     63 H30        34.0089   13.3070   13.6923 H           1 FA4       0.0317
     64 H31        32.5990   12.5500   12.9392 H           1 FA4       0.0317
     65 H32        34.0994   12.8649   10.6800 H           1 FA4       0.0813
     66 H33        34.7760   14.1898   11.6487 H           1 FA4       0.0813
     67 H34        32.9240   14.9090   10.3793 H           1 FA4       0.1994
     68 H35        32.4676   14.9178   11.9920 H           1 FA4       0.1994
     69 H36        31.9551   13.6799   10.9804 H           1 FA4       0.1994
     70 H37        24.5734    2.6415   16.9484 H           1 FA4       0.0839
     71 H38        22.9279    2.1175   17.0524 H           1 FA4       0.0839
     72 H39        23.9135    4.5723   16.0221 H           1 FA4       0.2664
     73 H40        21.0725    6.0079   15.5241 H           1 FA4       0.2615
     74 H41        22.6792    6.1620   15.5690 H           1 FA4       0.2615
     75 H42        20.9929    2.8238   16.3316 H           1 FA4       0.2615
     76 H43        20.1326    4.1274   15.9302 H           1 FA4       0.2615
     77 H44        35.9884    8.3240   10.3745 H           1 FA4       0.2490
@<TRIPOS>BOND
     1     1     2  ar
     2     1     6  ar
     3     2     3  ar
     4     3     4  ar
     5     3     7   1
     6     4     5  ar
     7     4    27   1
     8     5     6  ar
     9     7     8   1
    10     8     9   1
    11     9    10   1
    12    10    11   1
    13    11    12   1
    14    12    13   1
    15    13    14   1
    16    14    15   1
    17    15    16   1
    18    16    17  am
    19    16    19   2
    20    17    18   1
    21    18    20   1
    22    18    21   1
    23    20    23   1
    24    21    22  am
    25    21    33   2
    26    22    32   1
    27    23    24   1
    28    24    25   1
    29    25    26   1
    30    27    28   1
    31    28    29  ar
    32    29    30  ar
    33    29    31  ar
    34     1    34   1
    35     2    35   1
    36     5    36   1
    37     6    37   1
    38     7    38   1
    39     7    39   1
    40     8    40   1
    41     8    41   1
    42     9    42   1
    43     9    43   1
    44    10    44   1
    45    10    45   1
    46    11    46   1
    47    11    47   1
    48    12    48   1
    49    12    49   1
    50    13    50   1
    51    13    51   1
    52    14    52   1
    53    14    53   1
    54    15    54   1
    55    15    55   1
    56    17    56   1
    57    18    57   1
    58    20    58   1
    59    20    59   1
    60    22    60   1
    61    23    61   1
    62    23    62   1
    63    24    63   1
    64    24    64   1
    65    25    65   1
    66    25    66   1
    67    26    67   1
    68    26    68   1
    69    26    69   1
    70    27    70   1
    71    27    71   1
    72    28    72   1
    73    30    73   1
    74    30    74   1
    75    31    75   1
    76    31    76   1
    77    32    77   1
@<TRIPOS>SUBSTRUCTURE
     1  FA4      1

