@<TRIPOS>MOLECULE
2d1o_ligand_018
    77    77
SMALL
GAST_HUCK
****
This file was generated by PARSER (from files_GN.cpp)

@<TRIPOS>ATOM
      1 C1         20.6801    5.1861   12.2330 C.ar        1 FA4      -0.0755
      2 C2         21.9902    5.5237   12.6155 C.ar        1 FA4      -0.0668
      3 C3         22.7136    4.7379   13.5483 C.ar        1 FA4      -0.0377
      4 C4         22.0813    3.5823   14.1102 C.ar        1 FA4      -0.0050
      5 C5         20.7521    3.2707   13.7206 C.ar        1 FA4      -0.0635
      6 C6         20.0639    4.0561   12.7840 C.ar        1 FA4      -0.0754
      7 C7         24.1338    5.1340   13.8271 C.3         1 FA4      -0.0215
      8 C8         25.0859    4.8094   12.6367 C.3         1 FA4      -0.0443
      9 C9         26.5162    4.3046   12.9989 C.3         1 FA4      -0.0514
     10 C10        27.5092    5.3460   13.6098 C.3         1 FA4      -0.0529
     11 C11        27.5946    5.3627   15.1718 C.3         1 FA4      -0.0530
     12 C12        28.8914    4.7341   15.7740 C.3         1 FA4      -0.0529
     13 C13        30.0267    5.7668   16.0394 C.3         1 FA4      -0.0510
     14 C14        31.3739    5.1379   16.5235 C.3         1 FA4      -0.0361
     15 C15        32.4922    5.0766   15.4462 C.3         1 FA4       0.0374
     16 C16        33.1558    6.3543   15.2385 C.2         1 FA4       0.1782
     17 N17        32.9003    7.0752   14.1526 N.am        1 FA4      -0.2657
     18 C18        33.5354    8.3097   13.7716 C.3         1 FA4       0.1325
     19 O19        33.9149    6.7641   16.1064 O.2         1 FA4      -0.3969
     20 C20        32.4904    9.4490   13.9660 C.3         1 FA4      -0.0123
     21 C21        34.0720    8.1179   12.4256 C.2         1 FA4       0.2244
     22 N22        34.9528    7.1505   12.2312 N.am        1 FA4      -0.1623
     23 C23        33.0873   10.8818   13.8902 C.3         1 FA4      -0.0440
     24 C24        31.9780   11.9673   13.9580 C.3         1 FA4      -0.0124
     25 C25        32.4311   13.3704   13.4682 C.3         1 FA4      -0.0354
     26 N26        31.3944   14.0000   12.6405 N.4         1 FA4       0.2185
     27 C27        22.7549    2.6711   15.0891 C.3         1 FA4       0.0939
     28 N28        23.9208    2.0656   14.6056 N.pl3       1 FA4      -0.2620
     29 C29        24.0393    1.1919   13.6766 C.cat       1 FA4       0.2900
     30 N30        25.2145    0.7869   13.3978 N.pl3       1 FA4      -0.2847
     31 N31        23.0693    0.7000   13.0024 N.pl3       1 FA4      -0.2847
     32 O32        35.4422    6.8462   11.0611 O.3         1 FA4      -0.2717
     33 O33        33.6847    8.7770   11.4734 O.2         1 FA4      -0.3944
     34 H1         20.1796    5.7588   11.5494 H           1 FA4       0.0541
     35 H2         22.4173    6.3531   12.1952 H           1 FA4       0.0537
     36 H3         20.2748    2.4524   14.1083 H           1 FA4       0.0538
     37 H4         19.1134    3.8033   12.5060 H           1 FA4       0.0541
     38 H5         24.4961    4.6458   14.7266 H           1 FA4       0.0411
     39 H6         24.1767    6.2068   14.0374 H           1 FA4       0.0411
     40 H7         25.1691    5.6977   12.0060 H           1 FA4       0.0286
     41 H8         24.6307    4.0288   12.0182 H           1 FA4       0.0286
     42 H9         26.9490    3.9291   12.0643 H           1 FA4       0.0267
     43 H10        26.4345    3.4401   13.6628 H           1 FA4       0.0267
     44 H11        27.2353    6.3382   13.2477 H           1 FA4       0.0265
     45 H12        28.5061    5.1461   13.2034 H           1 FA4       0.0265
     46 H13        26.7364    4.8388   15.5940 H           1 FA4       0.0265
     47 H14        27.5175    6.3935   15.5178 H           1 FA4       0.0265
     48 H15        29.2611    3.9455   15.1124 H           1 FA4       0.0265
     49 H16        28.6446    4.2612   16.7305 H           1 FA4       0.0265
     50 H17        29.6703    6.4610   16.8086 H           1 FA4       0.0267
     51 H18        30.1825    6.3542   15.1309 H           1 FA4       0.0267
     52 H19        31.1963    4.1204   16.8740 H           1 FA4       0.0290
     53 H20        31.7414    5.6979   17.3871 H           1 FA4       0.0290
     54 H21        32.0652    4.7023   14.5105 H           1 FA4       0.0502
     55 H22        33.2501    4.3507   15.7568 H           1 FA4       0.0502
     56 H23        32.2226    6.7268   13.5481 H           1 FA4       0.1882
     57 H24        34.3860    8.5413   14.4224 H           1 FA4       0.0799
     58 H25        32.0241    9.3432   14.9523 H           1 FA4       0.0312
     59 H26        31.6950    9.3377   13.2234 H           1 FA4       0.0312
     60 H27        35.2087    6.6000   12.9849 H           1 FA4       0.2217
     61 H28        33.6399   10.9937   12.9569 H           1 FA4       0.0269
     62 H29        33.7904   11.0293   14.7164 H           1 FA4       0.0269
     63 H30        31.6219   12.0435   14.9921 H           1 FA4       0.0317
     64 H31        31.1320   11.6349   13.3480 H           1 FA4       0.0317
     65 H32        33.3347   13.3032   12.8607 H           1 FA4       0.0813
     66 H33        32.6398   14.0129   14.3259 H           1 FA4       0.0813
     67 H34        31.7087   14.9267   12.3434 H           1 FA4       0.1994
     68 H35        30.5278   14.0862   13.1792 H           1 FA4       0.1994
     69 H36        31.2298   13.4128   11.8160 H           1 FA4       0.1994
     70 H37        22.0910    1.8790   15.4476 H           1 FA4       0.0839
     71 H38        23.0198    3.2617   15.9683 H           1 FA4       0.0839
     72 H39        24.7191    2.3314   15.0145 H           1 FA4       0.2664
     73 H40        25.3526    0.1507   12.7259 H           1 FA4       0.2615
     74 H41        25.9495    1.1237   13.8679 H           1 FA4       0.2615
     75 H42        22.1916    0.9680   13.1671 H           1 FA4       0.2615
     76 H43        23.2392    0.0685   12.3354 H           1 FA4       0.2615
     77 H44        35.3299    5.8720   11.0032 H           1 FA4       0.2490
@<TRIPOS>BOND
     1     1     2  ar
     2     1     6  ar
     3     2     3  ar
     4     3     4  ar
     5     3     7   1
     6     4     5  ar
     7     4    27   1
     8     5     6  ar
     9     7     8   1
    10     8     9   1
    11     9    10   1
    12    10    11   1
    13    11    12   1
    14    12    13   1
    15    13    14   1
    16    14    15   1
    17    15    16   1
    18    16    17  am
    19    16    19   2
    20    17    18   1
    21    18    20   1
    22    18    21   1
    23    20    23   1
    24    21    22  am
    25    21    33   2
    26    22    32   1
    27    23    24   1
    28    24    25   1
    29    25    26   1
    30    27    28   1
    31    28    29  ar
    32    29    30  ar
    33    29    31  ar
    34     1    34   1
    35     2    35   1
    36     5    36   1
    37     6    37   1
    38     7    38   1
    39     7    39   1
    40     8    40   1
    41     8    41   1
    42     9    42   1
    43     9    43   1
    44    10    44   1
    45    10    45   1
    46    11    46   1
    47    11    47   1
    48    12    48   1
    49    12    49   1
    50    13    50   1
    51    13    51   1
    52    14    52   1
    53    14    53   1
    54    15    54   1
    55    15    55   1
    56    17    56   1
    57    18    57   1
    58    20    58   1
    59    20    59   1
    60    22    60   1
    61    23    61   1
    62    23    62   1
    63    24    63   1
    64    24    64   1
    65    25    65   1
    66    25    66   1
    67    26    67   1
    68    26    68   1
    69    26    69   1
    70    27    70   1
    71    27    71   1
    72    28    72   1
    73    30    73   1
    74    30    74   1
    75    31    75   1
    76    31    76   1
    77    32    77   1
@<TRIPOS>SUBSTRUCTURE
     1  FA4      1

