@<TRIPOS>MOLECULE
2d1o_ligand_029
    77    77
SMALL
GAST_HUCK
****
This file was generated by PARSER (from files_GN.cpp)

@<TRIPOS>ATOM
      1 C1         26.9997    5.8885   13.1803 C.ar        1 FA4      -0.0755
      2 C2         28.1213    5.0875   13.4405 C.ar        1 FA4      -0.0668
      3 C3         27.9980    3.8069   14.0412 C.ar        1 FA4      -0.0377
      4 C4         26.6768    3.3024   14.3106 C.ar        1 FA4      -0.0050
      5 C5         25.5691    4.1709   14.1133 C.ar        1 FA4      -0.0635
      6 C6         25.7221    5.4413   13.5394 C.ar        1 FA4      -0.0754
      7 C7         29.2594    3.0142   14.2252 C.3         1 FA4      -0.0215
      8 C8         30.5658    3.7611   14.6421 C.3         1 FA4      -0.0443
      9 C9         30.7445    4.0044   16.1784 C.3         1 FA4      -0.0514
     10 C10        30.7836    5.4954   16.6594 C.3         1 FA4      -0.0529
     11 C11        29.4727    6.0219   17.3228 C.3         1 FA4      -0.0530
     12 C12        29.6461    7.2485   18.2776 C.3         1 FA4      -0.0529
     13 C13        29.4361    8.6637   17.6606 C.3         1 FA4      -0.0510
     14 C14        30.5297    9.1596   16.6751 C.3         1 FA4      -0.0361
     15 C15        31.9167    9.4696   17.3315 C.3         1 FA4       0.0374
     16 C16        33.0366    8.9245   16.5910 C.2         1 FA4       0.1782
     17 N17        33.3771    9.4614   15.4230 N.am        1 FA4      -0.2657
     18 C18        34.3288    8.9520   14.4752 C.3         1 FA4       0.1325
     19 O19        33.5849    7.9063   17.0192 O.2         1 FA4      -0.3969
     20 C20        35.3363   10.0454   13.9997 C.3         1 FA4      -0.0123
     21 C21        33.6439    8.3306   13.3454 C.2         1 FA4       0.2244
     22 N22        34.1672    7.2672   12.7545 N.am        1 FA4      -0.1623
     23 C23        34.7441   11.2738   13.2423 C.3         1 FA4      -0.0440
     24 C24        35.7083   11.8444   12.1612 C.3         1 FA4      -0.0124
     25 C25        35.0827   12.9697   11.2993 C.3         1 FA4      -0.0354
     26 N26        35.9476   13.3018   10.1605 N.4         1 FA4       0.2185
     27 C27        26.4047    1.9017   14.7735 C.3         1 FA4       0.0939
     28 N28        25.1918    1.3421   14.3435 N.pl3       1 FA4      -0.2620
     29 C29        24.0469    1.3565   14.9265 C.cat       1 FA4       0.2900
     30 N30        23.0888    0.7470   14.3399 N.pl3       1 FA4      -0.2847
     31 N31        23.7976    1.9442   16.0331 N.pl3       1 FA4      -0.2847
     32 O32        33.6068    6.7329   11.7102 O.3         1 FA4      -0.2717
     33 O33        32.6210    8.8161   12.8821 O.2         1 FA4      -0.3944
     34 H1         27.1215    6.7999   12.7346 H           1 FA4       0.0541
     35 H2         29.0329    5.4607   13.1631 H           1 FA4       0.0537
     36 H3         24.6226    3.8751   14.3511 H           1 FA4       0.0538
     37 H4         24.9005    6.0267   13.3662 H           1 FA4       0.0541
     38 H5         29.4497    2.5162   13.2724 H           1 FA4       0.0411
     39 H6         29.1239    2.2248   14.9576 H           1 FA4       0.0411
     40 H7         30.6728    4.6869   14.0730 H           1 FA4       0.0286
     41 H8         31.3944    3.1283   14.3045 H           1 FA4       0.0286
     42 H9         31.6953    3.5448   16.4639 H           1 FA4       0.0267
     43 H10        29.9828    3.4495   16.7328 H           1 FA4       0.0267
     44 H11        31.0552    6.1384   15.8237 H           1 FA4       0.0265
     45 H12        31.5896    5.5814   17.3942 H           1 FA4       0.0265
     46 H13        29.0646    5.2055   17.9276 H           1 FA4       0.0265
     47 H14        28.7344    6.2458   16.5476 H           1 FA4       0.0265
     48 H15        30.6186    7.2032   18.7764 H           1 FA4       0.0265
     49 H16        28.8966    7.1441   19.0691 H           1 FA4       0.0265
     50 H17        29.3683    9.3834   18.4802 H           1 FA4       0.0267
     51 H18        28.4675    8.6722   17.1517 H           1 FA4       0.0267
     52 H19        30.1579   10.0738   16.2063 H           1 FA4       0.0290
     53 H20        30.6142    8.4269   15.8719 H           1 FA4       0.0290
     54 H21        31.9383    9.0922   18.3595 H           1 FA4       0.0502
     55 H22        32.0436   10.5526   17.4049 H           1 FA4       0.0502
     56 H23        32.8734   10.2467   15.1506 H           1 FA4       0.1882
     57 H24        34.9369    8.1761   14.9580 H           1 FA4       0.0799
     58 H25        36.0680    9.5467   13.3596 H           1 FA4       0.0312
     59 H26        35.8873   10.4123   14.8703 H           1 FA4       0.0312
     60 H27        34.9719    6.8656   13.1223 H           1 FA4       0.2217
     61 H28        34.4945   12.0563   13.9666 H           1 FA4       0.0269
     62 H29        33.8219   10.9803   12.7407 H           1 FA4       0.0269
     63 H30        36.0054   11.0296   11.4943 H           1 FA4       0.0317
     64 H31        36.6105   12.2276   12.6451 H           1 FA4       0.0317
     65 H32        34.9356   13.8699   11.8998 H           1 FA4       0.0813
     66 H33        34.1152   12.6468   10.9079 H           1 FA4       0.0813
     67 H34        35.5373   14.0756    9.6338 H           1 FA4       0.1994
     68 H35        36.0289   12.4848    9.5522 H           1 FA4       0.1994
     69 H36        36.8753   13.5727   10.4933 H           1 FA4       0.1994
     70 H37        26.5147    1.8615   15.8563 H           1 FA4       0.0839
     71 H38        27.1439    1.2197   14.3573 H           1 FA4       0.0839
     72 H39        25.2263    0.8829   13.5309 H           1 FA4       0.2664
     73 H40        22.2358    0.7332   14.7242 H           1 FA4       0.2615
     74 H41        23.2395    0.3124   13.5253 H           1 FA4       0.2615
     75 H42        24.4740    2.4120   16.4791 H           1 FA4       0.2615
     76 H43        22.9321    1.9239   16.3924 H           1 FA4       0.2615
     77 H44        33.9418    5.8138   11.6800 H           1 FA4       0.2490
@<TRIPOS>BOND
     1     1     2  ar
     2     1     6  ar
     3     2     3  ar
     4     3     4  ar
     5     3     7   1
     6     4     5  ar
     7     4    27   1
     8     5     6  ar
     9     7     8   1
    10     8     9   1
    11     9    10   1
    12    10    11   1
    13    11    12   1
    14    12    13   1
    15    13    14   1
    16    14    15   1
    17    15    16   1
    18    16    17  am
    19    16    19   2
    20    17    18   1
    21    18    20   1
    22    18    21   1
    23    20    23   1
    24    21    22  am
    25    21    33   2
    26    22    32   1
    27    23    24   1
    28    24    25   1
    29    25    26   1
    30    27    28   1
    31    28    29  ar
    32    29    30  ar
    33    29    31  ar
    34     1    34   1
    35     2    35   1
    36     5    36   1
    37     6    37   1
    38     7    38   1
    39     7    39   1
    40     8    40   1
    41     8    41   1
    42     9    42   1
    43     9    43   1
    44    10    44   1
    45    10    45   1
    46    11    46   1
    47    11    47   1
    48    12    48   1
    49    12    49   1
    50    13    50   1
    51    13    51   1
    52    14    52   1
    53    14    53   1
    54    15    54   1
    55    15    55   1
    56    17    56   1
    57    18    57   1
    58    20    58   1
    59    20    59   1
    60    22    60   1
    61    23    61   1
    62    23    62   1
    63    24    63   1
    64    24    64   1
    65    25    65   1
    66    25    66   1
    67    26    67   1
    68    26    68   1
    69    26    69   1
    70    27    70   1
    71    27    71   1
    72    28    72   1
    73    30    73   1
    74    30    74   1
    75    31    75   1
    76    31    76   1
    77    32    77   1
@<TRIPOS>SUBSTRUCTURE
     1  FA4      1

