@<TRIPOS>MOLECULE
2d1o_ligand_010
    77    77
SMALL
GAST_HUCK
****
This file was generated by PARSER (from files_GN.cpp)

@<TRIPOS>ATOM
      1 C1         23.3978    4.9934   13.6008 C.ar        1 FA4      -0.0755
      2 C2         23.5735    3.8629   14.4131 C.ar        1 FA4      -0.0668
      3 C3         23.3582    2.5469   13.9193 C.ar        1 FA4      -0.0377
      4 C4         22.8224    2.3921   12.5971 C.ar        1 FA4      -0.0050
      5 C5         22.6956    3.5505   11.7860 C.ar        1 FA4      -0.0635
      6 C6         22.9882    4.8328   12.2735 C.ar        1 FA4      -0.0754
      7 C7         23.7389    1.4196   14.8309 C.3         1 FA4      -0.0215
      8 C8         25.0775    1.5947   15.6118 C.3         1 FA4      -0.0443
      9 C9         26.3926    1.5617   14.7685 C.3         1 FA4      -0.0514
     10 C10        26.9603    2.9459   14.3367 C.3         1 FA4      -0.0529
     11 C11        27.6447    3.7577   15.4787 C.3         1 FA4      -0.0530
     12 C12        27.5961    5.2937   15.2464 C.3         1 FA4      -0.0529
     13 C13        28.4775    6.1165   16.2294 C.3         1 FA4      -0.0510
     14 C14        29.9747    6.1838   15.8199 C.3         1 FA4      -0.0361
     15 C15        30.8671    6.8102   16.9275 C.3         1 FA4       0.0374
     16 C16        32.1740    7.1804   16.4264 C.2         1 FA4       0.1782
     17 N17        32.2628    8.1758   15.5515 N.am        1 FA4      -0.2657
     18 C18        33.4342    8.6841   14.8986 C.3         1 FA4       0.1325
     19 O19        33.1648    6.5776   16.8230 O.2         1 FA4      -0.3969
     20 C20        33.6607   10.2138   15.1779 C.3         1 FA4      -0.0123
     21 C21        33.3036    8.3187   13.4981 C.2         1 FA4       0.2244
     22 N22        33.9486    7.2732   13.0010 N.am        1 FA4      -0.1623
     23 C23        32.4292   11.1373   15.4535 C.3         1 FA4      -0.0440
     24 C24        31.7463   11.7994   14.2219 C.3         1 FA4      -0.0124
     25 C25        32.4903   13.0549   13.6957 C.3         1 FA4      -0.0354
     26 N26        31.6799   13.8177   12.7370 N.4         1 FA4       0.2185
     27 C27        22.3799    1.0894   11.9958 C.3         1 FA4       0.0939
     28 N28        21.2591    1.1802   11.1492 N.pl3       1 FA4      -0.2620
     29 C29        20.0317    1.3438   11.4825 C.cat       1 FA4       0.2900
     30 N30        19.6250    1.4645   12.6899 N.pl3       1 FA4      -0.2847
     31 N31        19.1539    1.4000   10.5562 N.pl3       1 FA4      -0.2847
     32 O32        33.7528    6.8543   11.7831 O.3         1 FA4      -0.2717
     33 O33        32.5012    8.9097   12.7946 O.2         1 FA4      -0.3944
     34 H1         23.5960    5.9246   13.9651 H           1 FA4       0.0541
     35 H2         23.9091    4.0121   15.3679 H           1 FA4       0.0537
     36 H3         22.3656    3.4721   10.8191 H           1 FA4       0.0538
     37 H4         22.8832    5.6489   11.6685 H           1 FA4       0.0541
     38 H5         23.8333    0.4730   14.3097 H           1 FA4       0.0411
     39 H6         22.9343    1.2925   15.5597 H           1 FA4       0.0411
     40 H7         25.1307    0.7699   16.3275 H           1 FA4       0.0286
     41 H8         25.0294    2.5059   16.2101 H           1 FA4       0.0286
     42 H9         26.2173    0.9593   13.8701 H           1 FA4       0.0267
     43 H10        27.1700    1.0526   15.3435 H           1 FA4       0.0267
     44 H11        26.1551    3.5231   13.8855 H           1 FA4       0.0265
     45 H12        27.7019    2.7806   13.5510 H           1 FA4       0.0265
     46 H13        28.6834    3.4284   15.5709 H           1 FA4       0.0265
     47 H14        27.1565    3.5501   16.4355 H           1 FA4       0.0265
     48 H15        26.5595    5.6149   15.3692 H           1 FA4       0.0265
     49 H16        27.8851    5.5153   14.2139 H           1 FA4       0.0265
     50 H17        28.3936    5.7030   17.2375 H           1 FA4       0.0267
     51 H18        28.0915    7.1398   16.2628 H           1 FA4       0.0267
     52 H19        30.0526    6.7740   14.8998 H           1 FA4       0.0290
     53 H20        30.3383    5.1723   15.6038 H           1 FA4       0.0290
     54 H21        30.9637    6.0881   17.7437 H           1 FA4       0.0502
     55 H22        30.3838    7.7031   17.3329 H           1 FA4       0.0502
     56 H23        31.4287    8.5980   15.3034 H           1 FA4       0.1882
     57 H24        34.3257    8.1742   15.2907 H           1 FA4       0.0799
     58 H25        34.2669   10.6527   14.3843 H           1 FA4       0.0312
     59 H26        34.2711   10.2787   16.0860 H           1 FA4       0.0312
     60 H27        34.5447    6.7716   13.5778 H           1 FA4       0.2217
     61 H28        32.7489   11.9464   16.1273 H           1 FA4       0.0269
     62 H29        31.6766   10.5778   16.0125 H           1 FA4       0.0269
     63 H30        30.7381   12.1059   14.5168 H           1 FA4       0.0317
     64 H31        31.6389   11.0690   13.4211 H           1 FA4       0.0317
     65 H32        33.4257   12.7657   13.2114 H           1 FA4       0.0813
     66 H33        32.7215   13.7238   14.5285 H           1 FA4       0.0813
     67 H34        32.1581   14.6961   12.5216 H           1 FA4       0.1994
     68 H35        30.7646   14.0220   13.1453 H           1 FA4       0.1994
     69 H36        31.5589   13.2874   11.8748 H           1 FA4       0.1994
     70 H37        22.1330    0.3348   12.7358 H           1 FA4       0.0839
     71 H38        23.2099    0.7011   11.4045 H           1 FA4       0.0839
     72 H39        21.4315    1.1064   10.2274 H           1 FA4       0.2664
     73 H40        18.7169    1.5914   12.8649 H           1 FA4       0.2615
     74 H41        20.2315    1.4303   13.4001 H           1 FA4       0.2615
     75 H42        19.4012    1.3154    9.6581 H           1 FA4       0.2615
     76 H43        18.2572    1.5232   10.7783 H           1 FA4       0.2615
     77 H44        34.1955    5.9679   11.7432 H           1 FA4       0.2490
@<TRIPOS>BOND
     1     1     2  ar
     2     1     6  ar
     3     2     3  ar
     4     3     4  ar
     5     3     7   1
     6     4     5  ar
     7     4    27   1
     8     5     6  ar
     9     7     8   1
    10     8     9   1
    11     9    10   1
    12    10    11   1
    13    11    12   1
    14    12    13   1
    15    13    14   1
    16    14    15   1
    17    15    16   1
    18    16    17  am
    19    16    19   2
    20    17    18   1
    21    18    20   1
    22    18    21   1
    23    20    23   1
    24    21    22  am
    25    21    33   2
    26    22    32   1
    27    23    24   1
    28    24    25   1
    29    25    26   1
    30    27    28   1
    31    28    29  ar
    32    29    30  ar
    33    29    31  ar
    34     1    34   1
    35     2    35   1
    36     5    36   1
    37     6    37   1
    38     7    38   1
    39     7    39   1
    40     8    40   1
    41     8    41   1
    42     9    42   1
    43     9    43   1
    44    10    44   1
    45    10    45   1
    46    11    46   1
    47    11    47   1
    48    12    48   1
    49    12    49   1
    50    13    50   1
    51    13    51   1
    52    14    52   1
    53    14    53   1
    54    15    54   1
    55    15    55   1
    56    17    56   1
    57    18    57   1
    58    20    58   1
    59    20    59   1
    60    22    60   1
    61    23    61   1
    62    23    62   1
    63    24    63   1
    64    24    64   1
    65    25    65   1
    66    25    66   1
    67    26    67   1
    68    26    68   1
    69    26    69   1
    70    27    70   1
    71    27    71   1
    72    28    72   1
    73    30    73   1
    74    30    74   1
    75    31    75   1
    76    31    76   1
    77    32    77   1
@<TRIPOS>SUBSTRUCTURE
     1  FA4      1

