@<TRIPOS>MOLECULE
2d1o_ligand_051
    77    77
SMALL
GAST_HUCK
****
This file was generated by PARSER (from files_GN.cpp)

@<TRIPOS>ATOM
      1 C1         24.8408    5.4535   12.8723 C.ar        1 FA4      -0.0755
      2 C2         24.4972    4.7272   14.0234 C.ar        1 FA4      -0.0668
      3 C3         25.4788    4.0739   14.8075 C.ar        1 FA4      -0.0377
      4 C4         26.8580    4.2318   14.4572 C.ar        1 FA4      -0.0050
      5 C5         27.1830    5.0311   13.3311 C.ar        1 FA4      -0.0635
      6 C6         26.1897    5.5997   12.5257 C.ar        1 FA4      -0.0754
      7 C7         24.9954    3.2883   15.9863 C.3         1 FA4      -0.0215
      8 C8         24.8777    1.7520   15.7624 C.3         1 FA4      -0.0443
      9 C9         23.8355    1.3093   14.6941 C.3         1 FA4      -0.0514
     10 C10        24.4282    1.1584   13.2689 C.3         1 FA4      -0.0529
     11 C11        23.4265    0.5820   12.2297 C.3         1 FA4      -0.0530
     12 C12        22.0191    1.2370   12.1577 C.3         1 FA4      -0.0529
     13 C13        22.0368    2.7746   11.9380 C.3         1 FA4      -0.0510
     14 C14        20.6438    3.4450   11.7862 C.3         1 FA4      -0.0361
     15 C15        19.7802    2.8985   10.6149 C.3         1 FA4       0.0374
     16 C16        19.0945    1.6430   10.8914 C.2         1 FA4       0.1782
     17 N17        17.9674    1.6684   11.5937 N.am        1 FA4      -0.2657
     18 C18        17.0096    0.6097   11.7717 C.3         1 FA4       0.1325
     19 O19        19.5058    0.6158   10.3655 O.2         1 FA4      -0.3969
     20 C20        15.6360    1.0055   11.1024 C.3         1 FA4      -0.0123
     21 C21        16.8353    0.2501   13.1858 C.2         1 FA4       0.2244
     22 N22        17.6032    0.7248   14.1558 N.am        1 FA4      -0.1623
     23 C23        15.6094    2.2169   10.1261 C.3         1 FA4      -0.0440
     24 C24        16.2627    1.9657    8.7345 C.3         1 FA4      -0.0124
     25 C25        16.8646    3.2433    8.0943 C.3         1 FA4      -0.0354
     26 N26        15.9421    4.3855    8.1092 N.4         1 FA4       0.2185
     27 C27        27.9992    3.7086   15.2686 C.3         1 FA4       0.0939
     28 N28        29.0630    3.2322   14.4789 N.pl3       1 FA4      -0.2620
     29 C29        30.1024    3.8650   14.0762 C.cat       1 FA4       0.2900
     30 N30        30.9558    3.2572   13.3446 N.pl3       1 FA4      -0.2847
     31 N31        30.3576    5.0913   14.3352 N.pl3       1 FA4      -0.2847
     32 O32        17.3868    0.4726   15.4225 O.3         1 FA4      -0.2717
     33 O33        15.8508   -0.4290   13.4914 O.2         1 FA4      -0.3944
     34 H1         24.1186    5.8924   12.3000 H           1 FA4       0.0541
     35 H2         23.5058    4.6713   14.2677 H           1 FA4       0.0537
     36 H3         28.1529    5.2021   13.0723 H           1 FA4       0.0538
     37 H4         26.4568    6.1411   11.7000 H           1 FA4       0.0541
     38 H5         24.0120    3.6479   16.3177 H           1 FA4       0.0411
     39 H6         25.6526    3.4794   16.8302 H           1 FA4       0.0411
     40 H7         24.5622    1.3204   16.7173 H           1 FA4       0.0286
     41 H8         25.8642    1.3309   15.5377 H           1 FA4       0.0286
     42 H9         23.0083    2.0195   14.6865 H           1 FA4       0.0267
     43 H10        23.4226    0.3406   14.9904 H           1 FA4       0.0267
     44 H11        25.2851    0.4768   13.3108 H           1 FA4       0.0265
     45 H12        24.7979    2.1210   12.9096 H           1 FA4       0.0265
     46 H13        23.2820   -0.4841   12.4327 H           1 FA4       0.0265
     47 H14        23.8890    0.6550   11.2393 H           1 FA4       0.0265
     48 H15        21.4545    1.0048   13.0694 H           1 FA4       0.0265
     49 H16        21.4984    0.7674   11.3222 H           1 FA4       0.0265
     50 H17        22.6452    3.0037   11.0572 H           1 FA4       0.0267
     51 H18        22.5185    3.2360   12.8007 H           1 FA4       0.0267
     52 H19        20.8245    4.5059   11.5926 H           1 FA4       0.0290
     53 H20        20.0952    3.3810   12.7284 H           1 FA4       0.0290
     54 H21        20.4100    2.8045    9.7219 H           1 FA4       0.0502
     55 H22        19.0188    3.6478   10.3769 H           1 FA4       0.0502
     56 H23        17.7257    2.5221   11.9865 H           1 FA4       0.1882
     57 H24        17.3682   -0.3012   11.2637 H           1 FA4       0.0799
     58 H25        14.8993    1.2359   11.8893 H           1 FA4       0.0312
     59 H26        15.2443    0.1288   10.5636 H           1 FA4       0.0312
     60 H27        18.3665    1.2809   13.9168 H           1 FA4       0.2217
     61 H28        16.0851    3.0764   10.6152 H           1 FA4       0.0269
     62 H29        14.5639    2.4963    9.9584 H           1 FA4       0.0269
     63 H30        15.5079    1.5485    8.0579 H           1 FA4       0.0317
     64 H31        17.0593    1.2272    8.8255 H           1 FA4       0.0317
     65 H32        17.1487    3.0328    7.0618 H           1 FA4       0.0813
     66 H33        17.7690    3.5333    8.6364 H           1 FA4       0.0813
     67 H34        16.3442    5.1520    7.5600 H           1 FA4       0.1994
     68 H35        15.7959    4.7029    9.0724 H           1 FA4       0.1994
     69 H36        15.0451    4.1074    7.6990 H           1 FA4       0.1994
     70 H37        27.7129    2.8693   15.9005 H           1 FA4       0.0839
     71 H38        28.3130    4.5069   15.9515 H           1 FA4       0.0839
     72 H39        28.9820    2.3448   14.1870 H           1 FA4       0.2664
     73 H40        31.7133    3.7098   13.0365 H           1 FA4       0.2615
     74 H41        30.8260    2.3616   13.1027 H           1 FA4       0.2615
     75 H42        29.7714    5.5999   14.8544 H           1 FA4       0.2615
     76 H43        31.1329    5.4905   13.9926 H           1 FA4       0.2615
     77 H44        17.4603    1.3422   15.8773 H           1 FA4       0.2490
@<TRIPOS>BOND
     1     1     2  ar
     2     1     6  ar
     3     2     3  ar
     4     3     4  ar
     5     3     7   1
     6     4     5  ar
     7     4    27   1
     8     5     6  ar
     9     7     8   1
    10     8     9   1
    11     9    10   1
    12    10    11   1
    13    11    12   1
    14    12    13   1
    15    13    14   1
    16    14    15   1
    17    15    16   1
    18    16    17  am
    19    16    19   2
    20    17    18   1
    21    18    20   1
    22    18    21   1
    23    20    23   1
    24    21    22  am
    25    21    33   2
    26    22    32   1
    27    23    24   1
    28    24    25   1
    29    25    26   1
    30    27    28   1
    31    28    29  ar
    32    29    30  ar
    33    29    31  ar
    34     1    34   1
    35     2    35   1
    36     5    36   1
    37     6    37   1
    38     7    38   1
    39     7    39   1
    40     8    40   1
    41     8    41   1
    42     9    42   1
    43     9    43   1
    44    10    44   1
    45    10    45   1
    46    11    46   1
    47    11    47   1
    48    12    48   1
    49    12    49   1
    50    13    50   1
    51    13    51   1
    52    14    52   1
    53    14    53   1
    54    15    54   1
    55    15    55   1
    56    17    56   1
    57    18    57   1
    58    20    58   1
    59    20    59   1
    60    22    60   1
    61    23    61   1
    62    23    62   1
    63    24    63   1
    64    24    64   1
    65    25    65   1
    66    25    66   1
    67    26    67   1
    68    26    68   1
    69    26    69   1
    70    27    70   1
    71    27    71   1
    72    28    72   1
    73    30    73   1
    74    30    74   1
    75    31    75   1
    76    31    76   1
    77    32    77   1
@<TRIPOS>SUBSTRUCTURE
     1  FA4      1

