@<TRIPOS>MOLECULE
2d1o_ligand_082
    77    77
SMALL
GAST_HUCK
****
This file was generated by PARSER (from files_GN.cpp)

@<TRIPOS>ATOM
      1 C1         24.8088    5.7357   13.0394 C.ar        1 FA4      -0.0755
      2 C2         24.4790    4.9646   14.1616 C.ar        1 FA4      -0.0668
      3 C3         25.4326    4.1100   14.7727 C.ar        1 FA4      -0.0377
      4 C4         26.7846    4.1123   14.2936 C.ar        1 FA4      -0.0050
      5 C5         27.1012    4.9399   13.1827 C.ar        1 FA4      -0.0635
      6 C6         26.1195    5.7129   12.5414 C.ar        1 FA4      -0.0754
      7 C7         24.9652    3.1930   15.8617 C.3         1 FA4      -0.0215
      8 C8         24.8219    1.7059   15.3898 C.3         1 FA4      -0.0443
      9 C9         23.3857    1.2002   15.0670 C.3         1 FA4      -0.0514
     10 C10        22.4930    2.0796   14.1477 C.3         1 FA4      -0.0529
     11 C11        22.9934    2.3008   12.6866 C.3         1 FA4      -0.0530
     12 C12        22.4962    1.2479   11.6501 C.3         1 FA4      -0.0529
     13 C13        21.1884    1.6135   10.8828 C.3         1 FA4      -0.0510
     14 C14        19.9112    1.8441   11.7361 C.3         1 FA4      -0.0361
     15 C15        19.3701    0.5505   12.4133 C.3         1 FA4       0.0374
     16 C16        18.4442    0.7844   13.5082 C.2         1 FA4       0.1782
     17 N17        17.2740    0.1467   13.5367 N.am        1 FA4      -0.2657
     18 C18        16.2928    0.0635   14.5912 C.3         1 FA4       0.1325
     19 O19        18.8095    1.4708   14.4529 O.2         1 FA4      -0.3969
     20 C20        14.9103   -0.2897   13.9511 C.3         1 FA4      -0.0123
     21 C21        16.2104    1.1884   15.5283 C.2         1 FA4       0.2244
     22 N22        15.8957    2.4106   15.1297 N.am        1 FA4      -0.1623
     23 C23        14.3897    0.7046   12.8584 C.3         1 FA4      -0.0440
     24 C24        13.8512    0.0573   11.5388 C.3         1 FA4      -0.0124
     25 C25        14.4891    0.6251   10.2429 C.3         1 FA4      -0.0354
     26 N26        15.9256    0.3271   10.1476 N.4         1 FA4       0.2185
     27 C27        27.8811    3.3593   14.9964 C.3         1 FA4       0.0939
     28 N28        29.0197    3.0383   14.2504 N.pl3       1 FA4      -0.2620
     29 C29        30.0960    3.7241   14.0930 C.cat       1 FA4       0.2900
     30 N30        31.0217    3.2295   13.3688 N.pl3       1 FA4      -0.2847
     31 N31        30.2938    4.8876   14.6025 N.pl3       1 FA4      -0.2847
     32 O32        15.8579    3.4318   15.9448 O.3         1 FA4      -0.2717
     33 O33        16.4831    1.0004   16.7101 O.2         1 FA4      -0.3944
     34 H1         24.0994    6.3240   12.5945 H           1 FA4       0.0541
     35 H2         23.5179    5.0196   14.5153 H           1 FA4       0.0537
     36 H3         28.0634    4.9992   12.8382 H           1 FA4       0.0538
     37 H4         26.3715    6.2844   11.7331 H           1 FA4       0.0541
     38 H5         24.0208    3.5294   16.3029 H           1 FA4       0.0411
     39 H6         25.6868    3.2531   16.6826 H           1 FA4       0.0411
     40 H7         25.2110    1.0651   16.1866 H           1 FA4       0.0286
     41 H8         25.4509    1.5184   14.5148 H           1 FA4       0.0286
     42 H9         22.8553    1.0688   16.0169 H           1 FA4       0.0267
     43 H10        23.4719    0.2073   14.6094 H           1 FA4       0.0267
     44 H11        22.3511    3.0491   14.6323 H           1 FA4       0.0265
     45 H12        21.5109    1.6131   14.1307 H           1 FA4       0.0265
     46 H13        24.0867    2.3101   12.6840 H           1 FA4       0.0265
     47 H14        22.6755    3.2965   12.3569 H           1 FA4       0.0265
     48 H15        22.3950    0.2714   12.1321 H           1 FA4       0.0265
     49 H16        23.2771    1.1373   10.8937 H           1 FA4       0.0265
     50 H17        20.9746    0.8231   10.1547 H           1 FA4       0.0267
     51 H18        21.3802    2.5258   10.3090 H           1 FA4       0.0267
     52 H19        19.1289    2.2391   11.0809 H           1 FA4       0.0290
     53 H20        20.1179    2.6176   12.4814 H           1 FA4       0.0290
     54 H21        20.1985   -0.0307   12.8248 H           1 FA4       0.0502
     55 H22        18.9089   -0.0637   11.6298 H           1 FA4       0.0502
     56 H23        17.1045   -0.4299   12.7754 H           1 FA4       0.1882
     57 H24        16.5836   -0.8291   15.1651 H           1 FA4       0.0799
     58 H25        14.1617   -0.3720   14.7441 H           1 FA4       0.0312
     59 H26        15.0110   -1.2894   13.5230 H           1 FA4       0.0312
     60 H27        15.6693    2.5549   14.1997 H           1 FA4       0.2217
     61 H28        15.1819    1.4092   12.6013 H           1 FA4       0.0269
     62 H29        13.5951    1.3094   13.3053 H           1 FA4       0.0269
     63 H30        12.7736    0.2255   11.4792 H           1 FA4       0.0317
     64 H31        13.9965   -1.0250   11.5375 H           1 FA4       0.0317
     65 H32        14.3526    1.7085   10.2022 H           1 FA4       0.0813
     66 H33        13.9935    0.1874    9.3742 H           1 FA4       0.0813
     67 H34        16.2975    0.7129    9.2772 H           1 FA4       0.1994
     68 H35        16.0654   -0.6845   10.1569 H           1 FA4       0.1994
     69 H36        16.4236    0.7464   10.9335 H           1 FA4       0.1994
     70 H37        27.5133    2.3907   15.3352 H           1 FA4       0.0839
     71 H38        28.1424    3.9082   15.9047 H           1 FA4       0.0839
     72 H39        28.9982    2.2206   13.7993 H           1 FA4       0.2664
     73 H40        31.8147    3.7009   13.2271 H           1 FA4       0.2615
     74 H41        30.9082    2.3898   12.9766 H           1 FA4       0.2615
     75 H42        29.6398    5.2815   15.1378 H           1 FA4       0.2615
     76 H43        31.1028    5.3270   14.4559 H           1 FA4       0.2615
     77 H44        15.4334    4.1572   15.4334 H           1 FA4       0.2490
@<TRIPOS>BOND
     1     1     2  ar
     2     1     6  ar
     3     2     3  ar
     4     3     4  ar
     5     3     7   1
     6     4     5  ar
     7     4    27   1
     8     5     6  ar
     9     7     8   1
    10     8     9   1
    11     9    10   1
    12    10    11   1
    13    11    12   1
    14    12    13   1
    15    13    14   1
    16    14    15   1
    17    15    16   1
    18    16    17  am
    19    16    19   2
    20    17    18   1
    21    18    20   1
    22    18    21   1
    23    20    23   1
    24    21    22  am
    25    21    33   2
    26    22    32   1
    27    23    24   1
    28    24    25   1
    29    25    26   1
    30    27    28   1
    31    28    29  ar
    32    29    30  ar
    33    29    31  ar
    34     1    34   1
    35     2    35   1
    36     5    36   1
    37     6    37   1
    38     7    38   1
    39     7    39   1
    40     8    40   1
    41     8    41   1
    42     9    42   1
    43     9    43   1
    44    10    44   1
    45    10    45   1
    46    11    46   1
    47    11    47   1
    48    12    48   1
    49    12    49   1
    50    13    50   1
    51    13    51   1
    52    14    52   1
    53    14    53   1
    54    15    54   1
    55    15    55   1
    56    17    56   1
    57    18    57   1
    58    20    58   1
    59    20    59   1
    60    22    60   1
    61    23    61   1
    62    23    62   1
    63    24    63   1
    64    24    64   1
    65    25    65   1
    66    25    66   1
    67    26    67   1
    68    26    68   1
    69    26    69   1
    70    27    70   1
    71    27    71   1
    72    28    72   1
    73    30    73   1
    74    30    74   1
    75    31    75   1
    76    31    76   1
    77    32    77   1
@<TRIPOS>SUBSTRUCTURE
     1  FA4      1

