@<TRIPOS>MOLECULE
2d1o_ligand_092
    77    77
SMALL
GAST_HUCK
****
This file was generated by PARSER (from files_GN.cpp)

@<TRIPOS>ATOM
      1 C1         25.9166    3.9192   12.4098 C.ar        1 FA4      -0.0755
      2 C2         26.7693    4.9811   12.7437 C.ar        1 FA4      -0.0668
      3 C3         27.8110    4.8373   13.6997 C.ar        1 FA4      -0.0377
      4 C4         27.9870    3.5541   14.3257 C.ar        1 FA4      -0.0050
      5 C5         27.1019    2.4972   13.9708 C.ar        1 FA4      -0.0635
      6 C6         26.0826    2.6747   13.0239 C.ar        1 FA4      -0.0754
      7 C7         28.6438    6.0469   14.0024 C.3         1 FA4      -0.0215
      8 C8         28.5249    6.4763   15.4949 C.3         1 FA4      -0.0443
      9 C9         29.4276    7.6943   15.8732 C.3         1 FA4      -0.0514
     10 C10        30.6442    7.3168   16.7871 C.3         1 FA4      -0.0529
     11 C11        30.8976    8.2775   17.9901 C.3         1 FA4      -0.0530
     12 C12        29.7812    8.3547   19.0841 C.3         1 FA4      -0.0529
     13 C13        29.4585    7.0001   19.7688 C.3         1 FA4      -0.0510
     14 C14        28.6096    7.0955   21.0664 C.3         1 FA4      -0.0361
     15 C15        29.1079    8.1172   22.1412 C.3         1 FA4       0.0374
     16 C16        28.4658    9.4194   22.0790 C.2         1 FA4       0.1782
     17 N17        29.1648   10.5297   21.8773 N.am        1 FA4      -0.2657
     18 C18        28.6928   11.8883   21.9206 C.3         1 FA4       0.1325
     19 O19        27.2551    9.4713   22.3147 O.2         1 FA4      -0.3969
     20 C20        28.7836   12.5442   20.5120 C.3         1 FA4      -0.0123
     21 C21        29.4804   12.6098   22.9022 C.2         1 FA4       0.2244
     22 N22        29.0383   12.7797   24.1467 N.am        1 FA4      -0.1623
     23 C23        27.7426   11.9821   19.5005 C.3         1 FA4      -0.0440
     24 C24        27.7794   12.6434   18.0961 C.3         1 FA4      -0.0124
     25 C25        29.1281   12.4895   17.3482 C.3         1 FA4      -0.0354
     26 N26        28.9856   12.8326   15.9320 N.4         1 FA4       0.2185
     27 C27        28.9798    3.2351   15.4035 C.3         1 FA4       0.0939
     28 N28        30.1975    3.9188   15.3813 N.pl3       1 FA4      -0.2620
     29 C29        31.0915    3.9041   14.4631 C.cat       1 FA4       0.2900
     30 N30        32.1397    4.6106   14.6418 N.pl3       1 FA4      -0.2847
     31 N31        31.0198    3.2388   13.3733 N.pl3       1 FA4      -0.2847
     32 O32        29.7297   13.3659   25.0928 O.3         1 FA4      -0.2717
     33 O33        30.5939   13.0373   22.6049 O.2         1 FA4      -0.3944
     34 H1         25.1695    4.0519   11.7236 H           1 FA4       0.0541
     35 H2         26.6062    5.8787   12.2833 H           1 FA4       0.0537
     36 H3         27.1843    1.5765   14.4181 H           1 FA4       0.0538
     37 H4         25.4561    1.8937   12.8001 H           1 FA4       0.0541
     38 H5         28.3244    6.9011   13.3915 H           1 FA4       0.0411
     39 H6         29.6803    5.8626   13.7260 H           1 FA4       0.0411
     40 H7         28.7552    5.6394   16.1660 H           1 FA4       0.0286
     41 H8         27.4720    6.7513   15.6673 H           1 FA4       0.0286
     42 H9         28.7785    8.4104   16.3948 H           1 FA4       0.0267
     43 H10        29.8068    8.1904   14.9648 H           1 FA4       0.0267
     44 H11        31.5413    7.3119   16.1540 H           1 FA4       0.0265
     45 H12        30.5373    6.3014   17.1805 H           1 FA4       0.0265
     46 H13        31.0410    9.2857   17.6041 H           1 FA4       0.0265
     47 H14        31.8316    7.9769   18.4805 H           1 FA4       0.0265
     48 H15        28.8613    8.7548   18.6468 H           1 FA4       0.0265
     49 H16        30.1179    9.0583   19.8504 H           1 FA4       0.0265
     50 H17        30.3891    6.4783   19.9954 H           1 FA4       0.0267
     51 H18        28.8883    6.3747   19.0718 H           1 FA4       0.0267
     52 H19        28.6143    6.1052   21.5243 H           1 FA4       0.0290
     53 H20        27.5682    7.3090   20.7952 H           1 FA4       0.0290
     54 H21        30.1943    8.2192   22.0682 H           1 FA4       0.0502
     55 H22        28.9133    7.7082   23.1375 H           1 FA4       0.0502
     56 H23        30.1123   10.4069   21.6975 H           1 FA4       0.1882
     57 H24        27.6398   11.9208   22.2240 H           1 FA4       0.0799
     58 H25        29.7964   12.3923   20.1140 H           1 FA4       0.0312
     59 H26        28.6170   13.6218   20.6023 H           1 FA4       0.0312
     60 H27        28.1643   12.4116   24.3752 H           1 FA4       0.2217
     61 H28        26.7423   12.1346   19.9108 H           1 FA4       0.0269
     62 H29        27.8921   10.9073   19.3838 H           1 FA4       0.0269
     63 H30        27.5384   13.7102   18.1913 H           1 FA4       0.0317
     64 H31        26.9955   12.1769   17.4870 H           1 FA4       0.0317
     65 H32        29.4776   11.4634   17.4145 H           1 FA4       0.0813
     66 H33        29.8790   13.1557   17.7768 H           1 FA4       0.0813
     67 H34        29.8994   12.7903   15.4721 H           1 FA4       0.1994
     68 H35        28.6032   13.7800   15.8331 H           1 FA4       0.1994
     69 H36        28.3535   12.1650   15.4784 H           1 FA4       0.1994
     70 H37        29.2281    2.1685   15.3992 H           1 FA4       0.0839
     71 H38        28.5006    3.4273   16.3651 H           1 FA4       0.0839
     72 H39        30.3998    4.4313   16.1417 H           1 FA4       0.2664
     73 H40        32.7853    4.6485   13.9711 H           1 FA4       0.2615
     74 H41        32.2512    5.1050   15.4274 H           1 FA4       0.2615
     75 H42        30.2893    2.6862   13.1945 H           1 FA4       0.2615
     76 H43        31.7095    3.3097   12.7463 H           1 FA4       0.2615
     77 H44        30.0479   14.2092   24.6976 H           1 FA4       0.2490
@<TRIPOS>BOND
     1     1     2  ar
     2     1     6  ar
     3     2     3  ar
     4     3     4  ar
     5     3     7   1
     6     4     5  ar
     7     4    27   1
     8     5     6  ar
     9     7     8   1
    10     8     9   1
    11     9    10   1
    12    10    11   1
    13    11    12   1
    14    12    13   1
    15    13    14   1
    16    14    15   1
    17    15    16   1
    18    16    17  am
    19    16    19   2
    20    17    18   1
    21    18    20   1
    22    18    21   1
    23    20    23   1
    24    21    22  am
    25    21    33   2
    26    22    32   1
    27    23    24   1
    28    24    25   1
    29    25    26   1
    30    27    28   1
    31    28    29  ar
    32    29    30  ar
    33    29    31  ar
    34     1    34   1
    35     2    35   1
    36     5    36   1
    37     6    37   1
    38     7    38   1
    39     7    39   1
    40     8    40   1
    41     8    41   1
    42     9    42   1
    43     9    43   1
    44    10    44   1
    45    10    45   1
    46    11    46   1
    47    11    47   1
    48    12    48   1
    49    12    49   1
    50    13    50   1
    51    13    51   1
    52    14    52   1
    53    14    53   1
    54    15    54   1
    55    15    55   1
    56    17    56   1
    57    18    57   1
    58    20    58   1
    59    20    59   1
    60    22    60   1
    61    23    61   1
    62    23    62   1
    63    24    63   1
    64    24    64   1
    65    25    65   1
    66    25    66   1
    67    26    67   1
    68    26    68   1
    69    26    69   1
    70    27    70   1
    71    27    71   1
    72    28    72   1
    73    30    73   1
    74    30    74   1
    75    31    75   1
    76    31    76   1
    77    32    77   1
@<TRIPOS>SUBSTRUCTURE
     1  FA4      1

