@<TRIPOS>MOLECULE
2d1o_ligand_074
    77    77
SMALL
GAST_HUCK
****
This file was generated by PARSER (from files_GN.cpp)

@<TRIPOS>ATOM
      1 C1         26.1054    3.9309   12.5937 C.ar        1 FA4      -0.0755
      2 C2         26.8725    5.0290   13.0142 C.ar        1 FA4      -0.0668
      3 C3         27.8480    4.9183   14.0401 C.ar        1 FA4      -0.0377
      4 C4         28.0810    3.6247   14.6141 C.ar        1 FA4      -0.0050
      5 C5         27.2727    2.5325   14.1961 C.ar        1 FA4      -0.0635
      6 C6         26.3015    2.6820   13.1979 C.ar        1 FA4      -0.0754
      7 C7         28.6439    6.1521   14.3709 C.3         1 FA4      -0.0215
      8 C8         28.7193    6.5950   15.8657 C.3         1 FA4      -0.0443
      9 C9         29.6474    7.8228   16.1096 C.3         1 FA4      -0.0514
     10 C10        31.0976    7.7206   15.5406 C.3         1 FA4      -0.0529
     11 C11        31.9301    9.0058   15.8088 C.3         1 FA4      -0.0530
     12 C12        33.3301    9.0667   15.1319 C.3         1 FA4      -0.0529
     13 C13        34.5603    8.9469   16.0779 C.3         1 FA4      -0.0510
     14 C14        35.8620    9.5765   15.4911 C.3         1 FA4      -0.0361
     15 C15        36.6598    8.7024   14.4653 C.3         1 FA4       0.0374
     16 C16        37.4622    9.4838   13.5316 C.2         1 FA4       0.1782
     17 N17        37.2778    9.3601   12.2195 N.am        1 FA4      -0.2657
     18 C18        37.6530   10.3091   11.2021 C.3         1 FA4       0.1325
     19 O19        38.2668   10.2955   13.9741 O.2         1 FA4      -0.3969
     20 C20        36.4114   10.6212   10.2976 C.3         1 FA4      -0.0123
     21 C21        38.8420    9.8421   10.4846 C.2         1 FA4       0.2244
     22 N22        39.8141    9.2276   11.1432 N.am        1 FA4      -0.1623
     23 C23        35.0415   10.8156   11.0146 C.3         1 FA4      -0.0440
     24 C24        34.8902   12.0751   11.9127 C.3         1 FA4      -0.0124
     25 C25        34.6990   13.4146   11.1479 C.3         1 FA4      -0.0354
     26 N26        33.3366   13.9544   11.2842 N.4         1 FA4       0.2185
     27 C27        29.0969    3.3267   15.6720 C.3         1 FA4       0.0939
     28 N28        30.3515    3.9329   15.5610 N.pl3       1 FA4      -0.2620
     29 C29        31.1816    3.9108   14.5863 C.cat       1 FA4       0.2900
     30 N30        32.2930    4.5174   14.7494 N.pl3       1 FA4      -0.2847
     31 N31        30.9809    3.3373   13.4575 N.pl3       1 FA4      -0.2847
     32 O32        40.9248    8.8190   10.5843 O.3         1 FA4      -0.2717
     33 O33        38.9775   10.0411    9.2813 O.2         1 FA4      -0.3944
     34 H1         25.4078    4.0351   11.8496 H           1 FA4       0.0541
     35 H2         26.7121    5.9173   12.5429 H           1 FA4       0.0537
     36 H3         27.3871    1.6042   14.6126 H           1 FA4       0.0538
     37 H4         25.7354    1.8754   12.9076 H           1 FA4       0.0541
     38 H5         28.2418    7.0106   13.8128 H           1 FA4       0.0411
     39 H6         29.6539    6.0044   13.9811 H           1 FA4       0.0411
     40 H7         29.0648    5.7742   16.4900 H           1 FA4       0.0286
     41 H8         27.7135    6.8642   16.1928 H           1 FA4       0.0286
     42 H9         29.7144    7.9901   17.1900 H           1 FA4       0.0267
     43 H10        29.1532    8.7011   15.6814 H           1 FA4       0.0267
     44 H11        31.0543    7.5705   14.4652 H           1 FA4       0.0265
     45 H12        31.5981    6.8590   15.9888 H           1 FA4       0.0265
     46 H13        32.0385    9.1422   16.8902 H           1 FA4       0.0265
     47 H14        31.3632    9.8638   15.4321 H           1 FA4       0.0265
     48 H15        33.3810   10.0379   14.6322 H           1 FA4       0.0265
     49 H16        33.3932    8.3005   14.3579 H           1 FA4       0.0265
     50 H17        34.7370    7.9012   16.3309 H           1 FA4       0.0267
     51 H18        34.3368    9.4777   17.0091 H           1 FA4       0.0267
     52 H19        36.5323    9.8090   16.3269 H           1 FA4       0.0290
     53 H20        35.5924   10.5415   15.0504 H           1 FA4       0.0290
     54 H21        35.9673    8.0656   13.9103 H           1 FA4       0.0502
     55 H22        37.3289    8.0361   15.0150 H           1 FA4       0.0502
     56 H23        36.6816    8.6448   11.9380 H           1 FA4       0.1882
     57 H24        37.9257   11.2578   11.6680 H           1 FA4       0.0799
     58 H25        36.2750    9.7975    9.5876 H           1 FA4       0.0312
     59 H26        36.6259   11.5142    9.7083 H           1 FA4       0.0312
     60 H27        39.7071    9.0709   12.0937 H           1 FA4       0.2217
     61 H28        34.8529    9.9364   11.6374 H           1 FA4       0.0269
     62 H29        34.2531   10.8308   10.2571 H           1 FA4       0.0269
     63 H30        35.7627   12.1522   12.5647 H           1 FA4       0.0317
     64 H31        34.0285   11.9149   12.5689 H           1 FA4       0.0317
     65 H32        34.9114   13.3062   10.0825 H           1 FA4       0.0813
     66 H33        35.3835   14.1657   11.5496 H           1 FA4       0.0813
     67 H34        33.2719   14.8451   10.7842 H           1 FA4       0.1994
     68 H35        33.1334   14.1113   12.2739 H           1 FA4       0.1994
     69 H36        32.6545   13.2956   10.8992 H           1 FA4       0.1994
     70 H37        29.2834    2.2489   15.7702 H           1 FA4       0.0839
     71 H38        28.6721    3.6418   16.6287 H           1 FA4       0.0839
     72 H39        30.6314    4.4109   16.3145 H           1 FA4       0.2664
     73 H40        32.9166    4.5384   14.0571 H           1 FA4       0.2615
     74 H41        32.4771    4.9567   15.5532 H           1 FA4       0.2615
     75 H42        30.1839    2.8830   13.2851 H           1 FA4       0.2615
     76 H43        31.6415    3.3935   12.8005 H           1 FA4       0.2615
     77 H44        41.5407    9.5855   10.6306 H           1 FA4       0.2490
@<TRIPOS>BOND
     1     1     2  ar
     2     1     6  ar
     3     2     3  ar
     4     3     4  ar
     5     3     7   1
     6     4     5  ar
     7     4    27   1
     8     5     6  ar
     9     7     8   1
    10     8     9   1
    11     9    10   1
    12    10    11   1
    13    11    12   1
    14    12    13   1
    15    13    14   1
    16    14    15   1
    17    15    16   1
    18    16    17  am
    19    16    19   2
    20    17    18   1
    21    18    20   1
    22    18    21   1
    23    20    23   1
    24    21    22  am
    25    21    33   2
    26    22    32   1
    27    23    24   1
    28    24    25   1
    29    25    26   1
    30    27    28   1
    31    28    29  ar
    32    29    30  ar
    33    29    31  ar
    34     1    34   1
    35     2    35   1
    36     5    36   1
    37     6    37   1
    38     7    38   1
    39     7    39   1
    40     8    40   1
    41     8    41   1
    42     9    42   1
    43     9    43   1
    44    10    44   1
    45    10    45   1
    46    11    46   1
    47    11    47   1
    48    12    48   1
    49    12    49   1
    50    13    50   1
    51    13    51   1
    52    14    52   1
    53    14    53   1
    54    15    54   1
    55    15    55   1
    56    17    56   1
    57    18    57   1
    58    20    58   1
    59    20    59   1
    60    22    60   1
    61    23    61   1
    62    23    62   1
    63    24    63   1
    64    24    64   1
    65    25    65   1
    66    25    66   1
    67    26    67   1
    68    26    68   1
    69    26    69   1
    70    27    70   1
    71    27    71   1
    72    28    72   1
    73    30    73   1
    74    30    74   1
    75    31    75   1
    76    31    76   1
    77    32    77   1
@<TRIPOS>SUBSTRUCTURE
     1  FA4      1

