@<TRIPOS>MOLECULE
2d1o_ligand_034
    77    77
SMALL
GAST_HUCK
****
This file was generated by PARSER (from files_GN.cpp)

@<TRIPOS>ATOM
      1 C1         21.4463    4.0953   17.0530 C.ar        1 FA4      -0.0755
      2 C2         22.5344    4.1416   16.1638 C.ar        1 FA4      -0.0668
      3 C3         22.3425    4.1641   14.7573 C.ar        1 FA4      -0.0377
      4 C4         21.0035    4.0810   14.2564 C.ar        1 FA4      -0.0050
      5 C5         19.9231    4.0066   15.1735 C.ar        1 FA4      -0.0635
      6 C6         20.1396    4.0342   16.5587 C.ar        1 FA4      -0.0754
      7 C7         23.5767    4.2547   13.9024 C.3         1 FA4      -0.0215
      8 C8         24.2961    2.8882   13.6785 C.3         1 FA4      -0.0443
      9 C9         25.8253    2.9511   13.3763 C.3         1 FA4      -0.0514
     10 C10        26.3617    4.2349   12.6628 C.3         1 FA4      -0.0529
     11 C11        27.1245    5.2599   13.5594 C.3         1 FA4      -0.0530
     12 C12        28.4400    4.7071   14.1827 C.3         1 FA4      -0.0529
     13 C13        29.4431    5.7571   14.7380 C.3         1 FA4      -0.0510
     14 C14        28.9474    6.6071   15.9475 C.3         1 FA4      -0.0361
     15 C15        29.9866    6.8069   17.0940 C.3         1 FA4       0.0374
     16 C16        31.3434    7.1063   16.6592 C.2         1 FA4       0.1782
     17 N17        31.5494    7.9978   15.6975 N.am        1 FA4      -0.2657
     18 C18        32.8104    8.3544   15.0988 C.3         1 FA4       0.1325
     19 O19        32.2753    6.4949   17.1741 O.2         1 FA4      -0.3969
     20 C20        33.0860    9.8724   15.3294 C.3         1 FA4      -0.0123
     21 C21        32.7772    7.9965   13.6864 C.2         1 FA4       0.2244
     22 N22        33.6068    7.1063   13.1773 N.am        1 FA4      -0.1623
     23 C23        34.5033   10.3663   14.9179 C.3         1 FA4      -0.0440
     24 C24        35.6593    9.6359   15.6598 C.3         1 FA4      -0.0124
     25 C25        37.0303   10.3510   15.5791 C.3         1 FA4      -0.0354
     26 N26        37.7861   10.0069   14.3687 N.4         1 FA4       0.2185
     27 C27        20.6647    4.0565   12.8022 C.3         1 FA4       0.0939
     28 N28        20.9467    5.2630   12.1578 N.pl3       1 FA4      -0.2620
     29 C29        20.4155    6.4163   12.3600 C.cat       1 FA4       0.2900
     30 N30        20.8540    7.3884   11.6686 N.pl3       1 FA4      -0.2847
     31 N31        19.4903    6.6702   13.2039 N.pl3       1 FA4      -0.2847
     32 O32        33.5725    6.7889   11.9115 O.3         1 FA4      -0.2717
     33 O33        31.9451    8.5222   12.9529 O.2         1 FA4      -0.3944
     34 H1         21.6159    4.0844   18.0622 H           1 FA4       0.0541
     35 H2         23.4785    4.1578   16.5627 H           1 FA4       0.0537
     36 H3         18.9575    3.9398   14.8434 H           1 FA4       0.0538
     37 H4         19.3459    3.9880   17.2030 H           1 FA4       0.0541
     38 H5         24.2785    4.9588   14.3610 H           1 FA4       0.0411
     39 H6         23.3337    4.6982   12.9355 H           1 FA4       0.0411
     40 H7         23.7972    2.3648   12.8575 H           1 FA4       0.0286
     41 H8         24.1773    2.2688   14.5742 H           1 FA4       0.0286
     42 H9         26.0623    2.0862   12.7467 H           1 FA4       0.0267
     43 H10        26.3552    2.7984   14.3159 H           1 FA4       0.0267
     44 H11        25.5299    4.7545   12.1873 H           1 FA4       0.0265
     45 H12        27.0346    3.9343   11.8551 H           1 FA4       0.0265
     46 H13        26.4595    5.5943   14.3588 H           1 FA4       0.0265
     47 H14        27.3691    6.1340   12.9464 H           1 FA4       0.0265
     48 H15        28.9698    4.1246   13.4231 H           1 FA4       0.0265
     49 H16        28.1923    4.0327   15.0058 H           1 FA4       0.0265
     50 H17        29.7356    6.4317   13.9270 H           1 FA4       0.0267
     51 H18        30.3388    5.2022   15.0357 H           1 FA4       0.0267
     52 H19        28.0623    6.1397   16.3902 H           1 FA4       0.0290
     53 H20        28.6396    7.5891   15.5766 H           1 FA4       0.0290
     54 H21        29.9857    5.9004   17.7093 H           1 FA4       0.0502
     55 H22        29.6426    7.6229   17.7362 H           1 FA4       0.0502
     56 H23        30.7614    8.4384   15.3378 H           1 FA4       0.1882
     57 H24        33.6188    7.7993   15.5854 H           1 FA4       0.0799
     58 H25        32.9449   10.0966   16.3898 H           1 FA4       0.0312
     59 H26        32.3412   10.4624   14.7832 H           1 FA4       0.0312
     60 H27        34.2531    6.6664   13.7549 H           1 FA4       0.2217
     61 H28        34.5587   11.4319   15.1517 H           1 FA4       0.0269
     62 H29        34.6346   10.2598   13.8382 H           1 FA4       0.0269
     63 H30        35.7733    8.6259   15.2582 H           1 FA4       0.0317
     64 H31        35.3896    9.5480   16.7153 H           1 FA4       0.0317
     65 H32        37.6378   10.0599   16.4385 H           1 FA4       0.0813
     66 H33        36.8954   11.4338   15.6136 H           1 FA4       0.0813
     67 H34        38.6593   10.5390   14.3530 H           1 FA4       0.1994
     68 H35        37.2381   10.2338   13.5362 H           1 FA4       0.1994
     69 H36        38.0036    9.0082   14.3726 H           1 FA4       0.1994
     70 H37        19.6093    3.8130   12.6225 H           1 FA4       0.0839
     71 H38        21.2478    3.2623   12.3315 H           1 FA4       0.0839
     72 H39        21.6006    5.2280   11.4894 H           1 FA4       0.2664
     73 H40        20.5142    8.2524   11.7995 H           1 FA4       0.2615
     74 H41        21.5294    7.2494   11.0365 H           1 FA4       0.2615
     75 H42        19.1217    6.0003   13.7408 H           1 FA4       0.2615
     76 H43        19.1749    7.5474   13.2796 H           1 FA4       0.2615
     77 H44        33.9485    5.8840   11.8607 H           1 FA4       0.2490
@<TRIPOS>BOND
     1     1     2  ar
     2     1     6  ar
     3     2     3  ar
     4     3     4  ar
     5     3     7   1
     6     4     5  ar
     7     4    27   1
     8     5     6  ar
     9     7     8   1
    10     8     9   1
    11     9    10   1
    12    10    11   1
    13    11    12   1
    14    12    13   1
    15    13    14   1
    16    14    15   1
    17    15    16   1
    18    16    17  am
    19    16    19   2
    20    17    18   1
    21    18    20   1
    22    18    21   1
    23    20    23   1
    24    21    22  am
    25    21    33   2
    26    22    32   1
    27    23    24   1
    28    24    25   1
    29    25    26   1
    30    27    28   1
    31    28    29  ar
    32    29    30  ar
    33    29    31  ar
    34     1    34   1
    35     2    35   1
    36     5    36   1
    37     6    37   1
    38     7    38   1
    39     7    39   1
    40     8    40   1
    41     8    41   1
    42     9    42   1
    43     9    43   1
    44    10    44   1
    45    10    45   1
    46    11    46   1
    47    11    47   1
    48    12    48   1
    49    12    49   1
    50    13    50   1
    51    13    51   1
    52    14    52   1
    53    14    53   1
    54    15    54   1
    55    15    55   1
    56    17    56   1
    57    18    57   1
    58    20    58   1
    59    20    59   1
    60    22    60   1
    61    23    61   1
    62    23    62   1
    63    24    63   1
    64    24    64   1
    65    25    65   1
    66    25    66   1
    67    26    67   1
    68    26    68   1
    69    26    69   1
    70    27    70   1
    71    27    71   1
    72    28    72   1
    73    30    73   1
    74    30    74   1
    75    31    75   1
    76    31    76   1
    77    32    77   1
@<TRIPOS>SUBSTRUCTURE
     1  FA4      1

