@<TRIPOS>MOLECULE
2d1o_ligand_063
    77    77
SMALL
GAST_HUCK
****
This file was generated by PARSER (from files_GN.cpp)

@<TRIPOS>ATOM
      1 C1         29.4079    8.3653   16.8353 C.ar        1 FA4      -0.0755
      2 C2         29.9906    8.5056   15.5677 C.ar        1 FA4      -0.0668
      3 C3         31.0554    7.6669   15.1464 C.ar        1 FA4      -0.0377
      4 C4         31.5308    6.6622   16.0444 C.ar        1 FA4      -0.0050
      5 C5         30.9651    6.5752   17.3390 C.ar        1 FA4      -0.0635
      6 C6         29.9082    7.4103   17.7320 C.ar        1 FA4      -0.0754
      7 C7         31.6625    7.9074   13.7981 C.3         1 FA4      -0.0215
      8 C8         32.9262    8.8232   13.8592 C.3         1 FA4      -0.0443
      9 C9         34.1526    8.2534   13.0872 C.3         1 FA4      -0.0514
     10 C10        35.4793    9.0138   13.3562 C.3         1 FA4      -0.0529
     11 C11        36.0822    8.8022   14.7864 C.3         1 FA4      -0.0530
     12 C12        36.7513   10.0687   15.3793 C.3         1 FA4      -0.0529
     13 C13        35.7396   11.0634   16.0206 C.3         1 FA4      -0.0510
     14 C14        36.4278   12.3392   16.5760 C.3         1 FA4      -0.0361
     15 C15        35.5213   13.2465   17.4583 C.3         1 FA4       0.0374
     16 C16        35.3437   12.7557   18.8180 C.2         1 FA4       0.1782
     17 N17        34.1583   12.3374   19.2459 N.am        1 FA4      -0.2657
     18 C18        33.8591   11.7790   20.5426 C.3         1 FA4       0.1325
     19 O19        36.3136   12.7753   19.5675 O.2         1 FA4      -0.3969
     20 C20        32.3240   11.5487   20.6972 C.3         1 FA4      -0.0123
     21 C21        34.3624   12.6251   21.6124 C.2         1 FA4       0.2244
     22 N22        35.5411   12.3776   22.1881 N.am        1 FA4      -0.1623
     23 C23        31.7056   10.5311   19.6848 C.3         1 FA4      -0.0440
     24 C24        30.3770   11.0049   19.0146 C.3         1 FA4      -0.0124
     25 C25        30.5879   11.7907   17.6950 C.3         1 FA4      -0.0354
     26 N26        29.3217   12.2846   17.1397 N.4         1 FA4       0.2185
     27 C27        32.5832    5.6671   15.6654 C.3         1 FA4       0.0939
     28 N28        32.1908    4.8283   14.6159 N.pl3       1 FA4      -0.2620
     29 C29        31.2498    3.9540   14.5959 C.cat       1 FA4       0.2900
     30 N30        31.0844    3.3036   13.5099 N.pl3       1 FA4      -0.2847
     31 N31        30.4829    3.6793   15.5795 N.pl3       1 FA4      -0.2847
     32 O32        36.0420   13.1224   23.1347 O.3         1 FA4      -0.2717
     33 O33        33.7240   13.6154   21.9681 O.2         1 FA4      -0.3944
     34 H1         28.6329    8.9628   17.1183 H           1 FA4       0.0541
     35 H2         29.6380    9.2367   14.9541 H           1 FA4       0.0537
     36 H3         31.2999    5.8774   18.0075 H           1 FA4       0.0538
     37 H4         29.5038    7.3211   18.6673 H           1 FA4       0.0541
     38 H5         30.9385    8.3783   13.1255 H           1 FA4       0.0411
     39 H6         31.8942    6.9515   13.3258 H           1 FA4       0.0411
     40 H7         33.2177    8.9982   14.8956 H           1 FA4       0.0286
     41 H8         32.6727    9.7995   13.4302 H           1 FA4       0.0286
     42 H9         33.9413    8.3089   12.0094 H           1 FA4       0.0267
     43 H10        34.2971    7.2017   13.3406 H           1 FA4       0.0267
     44 H11        35.3111   10.0775   13.1506 H           1 FA4       0.0265
     45 H12        36.2168    8.6790   12.6230 H           1 FA4       0.0265
     46 H13        36.8361    8.0120   14.7234 H           1 FA4       0.0265
     47 H14        35.3201    8.4464   15.4881 H           1 FA4       0.0265
     48 H15        37.3273   10.5674   14.5957 H           1 FA4       0.0265
     49 H16        37.4577    9.7549   16.1564 H           1 FA4       0.0265
     50 H17        35.2077   10.5477   16.8281 H           1 FA4       0.0267
     51 H18        34.9928   11.3684   15.2820 H           1 FA4       0.0267
     52 H19        36.7823   12.9272   15.7229 H           1 FA4       0.0290
     53 H20        37.3120   12.0529   17.1541 H           1 FA4       0.0290
     54 H21        34.5540   13.3729   16.9601 H           1 FA4       0.0502
     55 H22        35.9864   14.2363   17.5140 H           1 FA4       0.0502
     56 H23        33.4274   12.3812   18.6123 H           1 FA4       0.1882
     57 H24        34.3388   10.7957   20.5983 H           1 FA4       0.0799
     58 H25        31.8192   12.5107   20.6035 H           1 FA4       0.0312
     59 H26        32.1156   11.1827   21.7037 H           1 FA4       0.0312
     60 H27        36.0694   11.6273   21.8658 H           1 FA4       0.2217
     61 H28        31.4946    9.5978   20.2173 H           1 FA4       0.0269
     62 H29        32.4215   10.2698   18.8978 H           1 FA4       0.0269
     63 H30        29.8123   11.6218   19.7272 H           1 FA4       0.0317
     64 H31        29.7622   10.1238   18.7910 H           1 FA4       0.0317
     65 H32        31.0561   11.1441   16.9536 H           1 FA4       0.0813
     66 H33        31.2431   12.6438   17.8722 H           1 FA4       0.0813
     67 H34        29.5163   12.8397   16.3072 H           1 FA4       0.1994
     68 H35        28.8443   12.8691   17.8283 H           1 FA4       0.1994
     69 H36        28.7166   11.5026   16.8812 H           1 FA4       0.1994
     70 H37        32.8859    5.0437   16.5099 H           1 FA4       0.0839
     71 H38        33.4770    6.2119   15.3609 H           1 FA4       0.0839
     72 H39        32.6792    4.9093   13.8214 H           1 FA4       0.2664
     73 H40        30.4175    2.6519   13.4442 H           1 FA4       0.2615
     74 H41        31.6470    3.4680   12.7811 H           1 FA4       0.2615
     75 H42        30.5790    4.1284   16.3939 H           1 FA4       0.2615
     76 H43        29.8221    3.0228   15.4850 H           1 FA4       0.2615
     77 H44        36.1898   12.5116   23.8922 H           1 FA4       0.2490
@<TRIPOS>BOND
     1     1     2  ar
     2     1     6  ar
     3     2     3  ar
     4     3     4  ar
     5     3     7   1
     6     4     5  ar
     7     4    27   1
     8     5     6  ar
     9     7     8   1
    10     8     9   1
    11     9    10   1
    12    10    11   1
    13    11    12   1
    14    12    13   1
    15    13    14   1
    16    14    15   1
    17    15    16   1
    18    16    17  am
    19    16    19   2
    20    17    18   1
    21    18    20   1
    22    18    21   1
    23    20    23   1
    24    21    22  am
    25    21    33   2
    26    22    32   1
    27    23    24   1
    28    24    25   1
    29    25    26   1
    30    27    28   1
    31    28    29  ar
    32    29    30  ar
    33    29    31  ar
    34     1    34   1
    35     2    35   1
    36     5    36   1
    37     6    37   1
    38     7    38   1
    39     7    39   1
    40     8    40   1
    41     8    41   1
    42     9    42   1
    43     9    43   1
    44    10    44   1
    45    10    45   1
    46    11    46   1
    47    11    47   1
    48    12    48   1
    49    12    49   1
    50    13    50   1
    51    13    51   1
    52    14    52   1
    53    14    53   1
    54    15    54   1
    55    15    55   1
    56    17    56   1
    57    18    57   1
    58    20    58   1
    59    20    59   1
    60    22    60   1
    61    23    61   1
    62    23    62   1
    63    24    63   1
    64    24    64   1
    65    25    65   1
    66    25    66   1
    67    26    67   1
    68    26    68   1
    69    26    69   1
    70    27    70   1
    71    27    71   1
    72    28    72   1
    73    30    73   1
    74    30    74   1
    75    31    75   1
    76    31    76   1
    77    32    77   1
@<TRIPOS>SUBSTRUCTURE
     1  FA4      1

