@<TRIPOS>MOLECULE
2d1o_ligand_085
    77    77
SMALL
GAST_HUCK
****
This file was generated by PARSER (from files_GN.cpp)

@<TRIPOS>ATOM
      1 C1         30.7131    5.7468   23.8540 C.ar        1 FA4      -0.0755
      2 C2         30.5220    6.2206   22.5496 C.ar        1 FA4      -0.0668
      3 C3         29.6058    7.2635   22.2575 C.ar        1 FA4      -0.0377
      4 C4         28.9083    7.8824   23.3449 C.ar        1 FA4      -0.0050
      5 C5         29.1288    7.3969   24.6608 C.ar        1 FA4      -0.0635
      6 C6         30.0137    6.3375   24.9148 C.ar        1 FA4      -0.0754
      7 C7         29.5033    7.6993   20.8290 C.3         1 FA4      -0.0215
      8 C8         29.0480    6.5953   19.8265 C.3         1 FA4      -0.0443
      9 C9         29.4210    6.9125   18.3498 C.3         1 FA4      -0.0514
     10 C10        30.9475    6.7866   18.0315 C.3         1 FA4      -0.0529
     11 C11        31.5395    7.8886   17.1078 C.3         1 FA4      -0.0530
     12 C12        31.5162    9.3262   17.7049 C.3         1 FA4      -0.0529
     13 C13        32.4669   10.3228   16.9769 C.3         1 FA4      -0.0510
     14 C14        33.9143   10.3253   17.5449 C.3         1 FA4      -0.0361
     15 C15        34.9324   11.1372   16.6854 C.3         1 FA4       0.0374
     16 C16        35.6995   10.2902   15.7829 C.2         1 FA4       0.1782
     17 N17        35.2900   10.0906   14.5409 N.am        1 FA4      -0.2657
     18 C18        35.8160    9.1201   13.6111 C.3         1 FA4       0.1325
     19 O19        36.6658    9.6999   16.2413 O.2         1 FA4      -0.3969
     20 C20        37.0298    9.6577   12.7834 C.3         1 FA4      -0.0123
     21 C21        34.7217    8.6837   12.7448 C.2         1 FA4       0.2244
     22 N22        34.4060    7.4031   12.6671 N.am        1 FA4      -0.1623
     23 C23        38.3996    9.6835   13.5355 C.3         1 FA4      -0.0440
     24 C24        38.8353   11.0668   14.1029 C.3         1 FA4      -0.0124
     25 C25        39.4781   12.0016   13.0496 C.3         1 FA4      -0.0354
     26 N26        39.9652   13.2431   13.6649 N.4         1 FA4       0.2185
     27 C27        27.9728    9.0422   23.1795 C.3         1 FA4       0.0939
     28 N28        28.5117   10.1819   22.5518 N.pl3       1 FA4      -0.2620
     29 C29        29.5598   10.8394   22.8399 C.cat       1 FA4       0.2900
     30 N30        29.8717   11.8252   22.0847 N.pl3       1 FA4      -0.2847
     31 N31        30.3400   10.5868   23.8184 N.pl3       1 FA4      -0.2847
     32 O32        33.4540    6.9495   11.8966 O.3         1 FA4      -0.2717
     33 O33        34.1138    9.5033   12.0663 O.2         1 FA4      -0.3944
     34 H1         31.3703    4.9835   24.0348 H           1 FA4       0.0541
     35 H2         31.0708    5.7899   21.8018 H           1 FA4       0.0537
     36 H3         28.6524    7.8195   25.4614 H           1 FA4       0.0538
     37 H4         30.1617    6.0068   25.8707 H           1 FA4       0.0541
     38 H5         30.4846    8.0834   20.5522 H           1 FA4       0.0411
     39 H6         28.8131    8.5276   20.6935 H           1 FA4       0.0411
     40 H7         27.9629    6.4926   19.9083 H           1 FA4       0.0286
     41 H8         29.4744    5.6265   20.0821 H           1 FA4       0.0286
     42 H9         29.0509    7.9110   18.1117 H           1 FA4       0.0267
     43 H10        28.8740    6.2198   17.7021 H           1 FA4       0.0267
     44 H11        31.1217    5.8172   17.5559 H           1 FA4       0.0265
     45 H12        31.5374    6.7769   18.9491 H           1 FA4       0.0265
     46 H13        30.9969    7.8878   16.1588 H           1 FA4       0.0265
     47 H14        32.5741    7.6098   16.8916 H           1 FA4       0.0265
     48 H15        31.7726    9.2966   18.7674 H           1 FA4       0.0265
     49 H16        30.4975    9.7149   17.6303 H           1 FA4       0.0265
     50 H17        32.0628   11.3329   17.0887 H           1 FA4       0.0267
     51 H18        32.4836   10.0957   15.9082 H           1 FA4       0.0267
     52 H19        34.2592    9.2952   17.6708 H           1 FA4       0.0290
     53 H20        33.8773   10.7662   18.5455 H           1 FA4       0.0290
     54 H21        35.6307   11.6521   17.3518 H           1 FA4       0.0502
     55 H22        34.4186   11.9197   16.1216 H           1 FA4       0.0502
     56 H23        34.4962   10.5736   14.2606 H           1 FA4       0.1882
     57 H24        36.1550    8.2427   14.1747 H           1 FA4       0.0799
     58 H25        36.7917   10.6497   12.3957 H           1 FA4       0.0312
     59 H26        37.1602    9.0051   11.9135 H           1 FA4       0.0312
     60 H27        34.9099    6.7657   13.1962 H           1 FA4       0.2217
     61 H28        39.1847    9.3294   12.8605 H           1 FA4       0.0269
     62 H29        38.3795    8.9645   14.3581 H           1 FA4       0.0269
     63 H30        39.5707   10.8930   14.8938 H           1 FA4       0.0317
     64 H31        37.9780   11.5695   14.5550 H           1 FA4       0.0317
     65 H32        38.7520   12.2587   12.2767 H           1 FA4       0.0813
     66 H33        40.3296   11.5053   12.5790 H           1 FA4       0.0813
     67 H34        40.4397   13.8082   12.9584 H           1 FA4       0.1994
     68 H35        40.6236   13.0204   14.4147 H           1 FA4       0.1994
     69 H36        39.1785   13.7701   14.0489 H           1 FA4       0.1994
     70 H37        27.5560    9.3717   24.1342 H           1 FA4       0.0839
     71 H38        27.1275    8.6999   22.5799 H           1 FA4       0.0839
     72 H39        28.0385   10.4715   21.7940 H           1 FA4       0.2664
     73 H40        30.6388   12.3296   22.2615 H           1 FA4       0.2615
     74 H41        29.3305   12.0452   21.3537 H           1 FA4       0.2615
     75 H42        30.1533    9.8802   24.4029 H           1 FA4       0.2615
     76 H43        31.1098   11.0998   23.9528 H           1 FA4       0.2615
     77 H44        33.5265    5.9746   11.9510 H           1 FA4       0.2490
@<TRIPOS>BOND
     1     1     2  ar
     2     1     6  ar
     3     2     3  ar
     4     3     4  ar
     5     3     7   1
     6     4     5  ar
     7     4    27   1
     8     5     6  ar
     9     7     8   1
    10     8     9   1
    11     9    10   1
    12    10    11   1
    13    11    12   1
    14    12    13   1
    15    13    14   1
    16    14    15   1
    17    15    16   1
    18    16    17  am
    19    16    19   2
    20    17    18   1
    21    18    20   1
    22    18    21   1
    23    20    23   1
    24    21    22  am
    25    21    33   2
    26    22    32   1
    27    23    24   1
    28    24    25   1
    29    25    26   1
    30    27    28   1
    31    28    29  ar
    32    29    30  ar
    33    29    31  ar
    34     1    34   1
    35     2    35   1
    36     5    36   1
    37     6    37   1
    38     7    38   1
    39     7    39   1
    40     8    40   1
    41     8    41   1
    42     9    42   1
    43     9    43   1
    44    10    44   1
    45    10    45   1
    46    11    46   1
    47    11    47   1
    48    12    48   1
    49    12    49   1
    50    13    50   1
    51    13    51   1
    52    14    52   1
    53    14    53   1
    54    15    54   1
    55    15    55   1
    56    17    56   1
    57    18    57   1
    58    20    58   1
    59    20    59   1
    60    22    60   1
    61    23    61   1
    62    23    62   1
    63    24    63   1
    64    24    64   1
    65    25    65   1
    66    25    66   1
    67    26    67   1
    68    26    68   1
    69    26    69   1
    70    27    70   1
    71    27    71   1
    72    28    72   1
    73    30    73   1
    74    30    74   1
    75    31    75   1
    76    31    76   1
    77    32    77   1
@<TRIPOS>SUBSTRUCTURE
     1  FA4      1

