@<TRIPOS>MOLECULE
2d1o_ligand_076
    77    77
SMALL
GAST_HUCK
****
This file was generated by PARSER (from files_GN.cpp)

@<TRIPOS>ATOM
      1 C1         26.9692   14.9304   11.7873 C.ar        1 FA4      -0.0755
      2 C2         27.4285   14.7369   13.1051 C.ar        1 FA4      -0.0668
      3 C3         28.7824   14.3909   13.3697 C.ar        1 FA4      -0.0377
      4 C4         29.7019   14.3242   12.2719 C.ar        1 FA4      -0.0050
      5 C5         29.2082   14.5166   10.9530 C.ar        1 FA4      -0.0635
      6 C6         27.8570   14.8072   10.7095 C.ar        1 FA4      -0.0754
      7 C7         29.2234   14.0991   14.7740 C.3         1 FA4      -0.0215
      8 C8         28.1706   13.6383   15.8197 C.3         1 FA4      -0.0443
      9 C9         28.7495   12.8855   17.0487 C.3         1 FA4      -0.0514
     10 C10        29.7280   13.7292   17.9138 C.3         1 FA4      -0.0529
     11 C11        30.0751   13.0867   19.2895 C.3         1 FA4      -0.0530
     12 C12        30.9499   11.7976   19.2683 C.3         1 FA4      -0.0529
     13 C13        32.3625   11.9724   18.6281 C.3         1 FA4      -0.0510
     14 C14        33.2908   10.7161   18.7533 C.3         1 FA4      -0.0361
     15 C15        33.6275    9.9741   17.4188 C.3         1 FA4       0.0374
     16 C16        32.6055    9.1010   16.8573 C.2         1 FA4       0.1782
     17 N17        32.9811    8.1677   15.9832 N.am        1 FA4      -0.2657
     18 C18        32.1341    7.2021   15.3258 C.3         1 FA4       0.1325
     19 O19        31.4336    9.2249   17.2016 O.2         1 FA4      -0.3969
     20 C20        32.4066    5.7531   15.8751 C.3         1 FA4      -0.0123
     21 C21        32.3518    7.3189   13.8885 C.2         1 FA4       0.2244
     22 N22        33.4675    6.8920   13.3230 N.am        1 FA4      -0.1623
     23 C23        31.1282    4.9153   16.1835 C.3         1 FA4      -0.0440
     24 C24        30.0200    4.9478   15.0868 C.3         1 FA4      -0.0124
     25 C25        29.8921    3.6493   14.2443 C.3         1 FA4      -0.0354
     26 N26        31.1594    3.1998   13.6441 N.4         1 FA4       0.2185
     27 C27        31.1631   14.0587   12.4383 C.3         1 FA4       0.0939
     28 N28        31.7435   14.8439   13.4361 N.pl3       1 FA4      -0.2620
     29 C29        31.9459   16.1094   13.4259 C.cat       1 FA4       0.2900
     30 N30        32.5115   16.6267   14.4524 N.pl3       1 FA4      -0.2847
     31 N31        31.6232   16.9001   12.4724 N.pl3       1 FA4      -0.2847
     32 O32        33.5913    6.8314   12.0255 O.3         1 FA4      -0.2717
     33 O33        31.4648    7.7861   13.1829 O.2         1 FA4      -0.3944
     34 H1         25.9812   15.1491   11.6152 H           1 FA4       0.0541
     35 H2         26.7462   14.8500   13.8628 H           1 FA4       0.0537
     36 H3         29.8323   14.4521   10.1454 H           1 FA4       0.0538
     37 H4         27.5161   14.9419    9.7488 H           1 FA4       0.0541
     38 H5         29.7206   14.9854   15.1666 H           1 FA4       0.0411
     39 H6         29.9613   13.3003   14.7422 H           1 FA4       0.0411
     40 H7         27.4679   12.9545   15.3403 H           1 FA4       0.0286
     41 H8         27.5961   14.4949   16.1781 H           1 FA4       0.0286
     42 H9         29.2650   11.9862   16.7057 H           1 FA4       0.0267
     43 H10        27.9168   12.5647   17.6795 H           1 FA4       0.0267
     44 H11        29.2679   14.6997   18.1158 H           1 FA4       0.0265
     45 H12        30.6522   13.9113   17.3603 H           1 FA4       0.0265
     46 H13        29.1330   12.8446   19.7987 H           1 FA4       0.0265
     47 H14        30.5832   13.8418   19.9068 H           1 FA4       0.0265
     48 H15        30.4027   11.0046   18.7479 H           1 FA4       0.0265
     49 H16        31.0797   11.4768   20.3122 H           1 FA4       0.0265
     50 H17        32.8452   12.8198   19.1344 H           1 FA4       0.0267
     51 H18        32.2430   12.2495   17.5735 H           1 FA4       0.0267
     52 H19        32.8640    9.9918   19.4571 H           1 FA4       0.0290
     53 H20        34.2372   11.0501   19.1955 H           1 FA4       0.0290
     54 H21        34.5141    9.3616   17.6218 H           1 FA4       0.0502
     55 H22        33.9133   10.7191   16.6630 H           1 FA4       0.0502
     56 H23        33.9359    8.1153   15.7936 H           1 FA4       0.1882
     57 H24        31.0823    7.4497   15.5349 H           1 FA4       0.0799
     58 H25        32.9595    5.8201   16.8172 H           1 FA4       0.0312
     59 H26        33.0408    5.1811   15.1931 H           1 FA4       0.0312
     60 H27        34.1690    6.5171   13.8739 H           1 FA4       0.2217
     61 H28        30.7023    5.2937   17.1214 H           1 FA4       0.0269
     62 H29        31.4285    3.8755   16.3653 H           1 FA4       0.0269
     63 H30        30.1711    5.7956   14.4082 H           1 FA4       0.0317
     64 H31        29.0506    5.0927   15.5879 H           1 FA4       0.0317
     65 H32        29.1712    3.8229   13.4372 H           1 FA4       0.0813
     66 H33        29.5118    2.8394   14.8785 H           1 FA4       0.0813
     67 H34        30.9653    2.3925   13.0427 H           1 FA4       0.1994
     68 H35        31.8064    2.9230   14.3925 H           1 FA4       0.1994
     69 H36        31.6072    3.9278   13.0797 H           1 FA4       0.1994
     70 H37        31.7141   14.2027   11.5030 H           1 FA4       0.0839
     71 H38        31.2981   13.0079   12.7000 H           1 FA4       0.0839
     72 H39        32.0641   14.3817   14.1860 H           1 FA4       0.2664
     73 H40        32.6594   17.5470   14.4859 H           1 FA4       0.2615
     74 H41        32.7646   16.0826   15.1691 H           1 FA4       0.2615
     75 H42        31.1991   16.5691   11.7094 H           1 FA4       0.2615
     76 H43        31.7837   17.8170   12.5490 H           1 FA4       0.2615
     77 H44        34.0332    5.9670   11.8688 H           1 FA4       0.2490
@<TRIPOS>BOND
     1     1     2  ar
     2     1     6  ar
     3     2     3  ar
     4     3     4  ar
     5     3     7   1
     6     4     5  ar
     7     4    27   1
     8     5     6  ar
     9     7     8   1
    10     8     9   1
    11     9    10   1
    12    10    11   1
    13    11    12   1
    14    12    13   1
    15    13    14   1
    16    14    15   1
    17    15    16   1
    18    16    17  am
    19    16    19   2
    20    17    18   1
    21    18    20   1
    22    18    21   1
    23    20    23   1
    24    21    22  am
    25    21    33   2
    26    22    32   1
    27    23    24   1
    28    24    25   1
    29    25    26   1
    30    27    28   1
    31    28    29  ar
    32    29    30  ar
    33    29    31  ar
    34     1    34   1
    35     2    35   1
    36     5    36   1
    37     6    37   1
    38     7    38   1
    39     7    39   1
    40     8    40   1
    41     8    41   1
    42     9    42   1
    43     9    43   1
    44    10    44   1
    45    10    45   1
    46    11    46   1
    47    11    47   1
    48    12    48   1
    49    12    49   1
    50    13    50   1
    51    13    51   1
    52    14    52   1
    53    14    53   1
    54    15    54   1
    55    15    55   1
    56    17    56   1
    57    18    57   1
    58    20    58   1
    59    20    59   1
    60    22    60   1
    61    23    61   1
    62    23    62   1
    63    24    63   1
    64    24    64   1
    65    25    65   1
    66    25    66   1
    67    26    67   1
    68    26    68   1
    69    26    69   1
    70    27    70   1
    71    27    71   1
    72    28    72   1
    73    30    73   1
    74    30    74   1
    75    31    75   1
    76    31    76   1
    77    32    77   1
@<TRIPOS>SUBSTRUCTURE
     1  FA4      1

