@<TRIPOS>MOLECULE
2d1o_ligand_046
    77    77
SMALL
GAST_HUCK
****
This file was generated by PARSER (from files_GN.cpp)

@<TRIPOS>ATOM
      1 C1         22.4910    2.7510   11.5305 C.ar        1 FA4      -0.0755
      2 C2         23.3769    3.7849   11.8931 C.ar        1 FA4      -0.0668
      3 C3         24.3063    3.6157   12.9543 C.ar        1 FA4      -0.0377
      4 C4         24.3245    2.3730   13.6677 C.ar        1 FA4      -0.0050
      5 C5         23.4399    1.3380   13.2613 C.ar        1 FA4      -0.0635
      6 C6         22.5147    1.5380   12.2244 C.ar        1 FA4      -0.0754
      7 C7         25.1538    4.8199   13.2990 C.3         1 FA4      -0.0215
      8 C8         26.6418    4.7558   12.8087 C.3         1 FA4      -0.0443
      9 C9         27.7178    4.2029   13.7938 C.3         1 FA4      -0.0514
     10 C10        27.7464    4.8229   15.2361 C.3         1 FA4      -0.0529
     11 C11        28.3980    6.2357   15.3654 C.3         1 FA4      -0.0530
     12 C12        29.9246    6.2606   15.6539 C.3         1 FA4      -0.0529
     13 C13        30.8312    5.9224   14.4370 C.3         1 FA4      -0.0510
     14 C14        32.3506    6.1175   14.6958 C.3         1 FA4      -0.0361
     15 C15        32.7034    7.3335   15.6016 C.3         1 FA4       0.0374
     16 C16        34.0060    7.8884   15.3042 C.2         1 FA4       0.1782
     17 N17        34.1035    8.7865   14.3247 N.am        1 FA4      -0.2657
     18 C18        35.2888    9.4247   13.8442 C.3         1 FA4       0.1325
     19 O19        34.9910    7.5002   15.9288 O.2         1 FA4      -0.3969
     20 C20        35.1004   10.9694   14.0201 C.3         1 FA4      -0.0123
     21 C21        35.5877    8.9385   12.4989 C.2         1 FA4       0.2244
     22 N22        35.6233    7.6343   12.2783 N.am        1 FA4      -0.1623
     23 C23        34.0407   11.6404   13.0834 C.3         1 FA4      -0.0440
     24 C24        34.1130   13.1981   13.1086 C.3         1 FA4      -0.0124
     25 C25        34.0653   13.8712   11.7013 C.3         1 FA4      -0.0354
     26 N26        32.7285   14.3559   11.3135 N.4         1 FA4       0.2185
     27 C27        25.2848    2.0402   14.7610 C.3         1 FA4       0.0939
     28 N28        24.7729    1.4022   15.9005 N.pl3       1 FA4      -0.2620
     29 C29        23.8174    1.7764   16.6710 C.cat       1 FA4       0.2900
     30 N30        23.6482    1.1351   17.7596 N.pl3       1 FA4      -0.2847
     31 N31        23.0123    2.7469   16.4453 N.pl3       1 FA4      -0.2847
     32 O32        35.8615    7.1217   11.1021 O.3         1 FA4      -0.2717
     33 O33        35.8629    9.7138   11.5867 O.2         1 FA4      -0.3944
     34 H1         21.8235    2.9003   10.7644 H           1 FA4       0.0541
     35 H2         23.3357    4.6544   11.3594 H           1 FA4       0.0537
     36 H3         23.4304    0.4469   13.7499 H           1 FA4       0.0538
     37 H4         21.8697    0.7871   11.9565 H           1 FA4       0.0541
     38 H5         25.0845    5.0369   14.3743 H           1 FA4       0.0411
     39 H6         24.7093    5.7136   12.8182 H           1 FA4       0.0411
     40 H7         26.9342    5.7734   12.5063 H           1 FA4       0.0286
     41 H8         26.6702    4.1441   11.8973 H           1 FA4       0.0286
     42 H9         28.7015    4.3659   13.3270 H           1 FA4       0.0267
     43 H10        27.5517    3.1179   13.8819 H           1 FA4       0.0267
     44 H11        28.2720    4.1112   15.8896 H           1 FA4       0.0265
     45 H12        26.7269    4.9006   15.6287 H           1 FA4       0.0265
     46 H13        27.9158    6.7319   16.2134 H           1 FA4       0.0265
     47 H14        28.1925    6.8447   14.4801 H           1 FA4       0.0265
     48 H15        30.1690    5.5899   16.4867 H           1 FA4       0.0265
     49 H16        30.1657    7.2755   15.9824 H           1 FA4       0.0265
     50 H17        30.5447    6.5384   13.5745 H           1 FA4       0.0267
     51 H18        30.6932    4.8741   14.1680 H           1 FA4       0.0267
     52 H19        32.8382    6.2427   13.7213 H           1 FA4       0.0290
     53 H20        32.7595    5.2110   15.1528 H           1 FA4       0.0290
     54 H21        32.6859    7.0217   16.6526 H           1 FA4       0.0502
     55 H22        31.9488    8.1234   15.4904 H           1 FA4       0.0502
     56 H23        33.2804    9.0301   13.8678 H           1 FA4       0.1882
     57 H24        36.1552    9.1658   14.4606 H           1 FA4       0.0799
     58 H25        36.0758   11.4510   13.8690 H           1 FA4       0.0312
     59 H26        34.7954   11.1771   15.0549 H           1 FA4       0.0312
     60 H27        35.4808    7.0314   13.0275 H           1 FA4       0.2217
     61 H28        33.0345   11.3409   13.3816 H           1 FA4       0.0269
     62 H29        34.1929   11.2941   12.0610 H           1 FA4       0.0269
     63 H30        35.0545   13.5191   13.5691 H           1 FA4       0.0317
     64 H31        33.2982   13.5996   13.7225 H           1 FA4       0.0317
     65 H32        34.4322   13.1771   10.9349 H           1 FA4       0.0813
     66 H33        34.7428   14.7360   11.7094 H           1 FA4       0.0813
     67 H34        32.8064   14.8541   10.4169 H           1 FA4       0.1994
     68 H35        32.3691   14.9995   12.0264 H           1 FA4       0.1994
     69 H36        32.0791   13.5692   11.1952 H           1 FA4       0.1994
     70 H37        25.8188    2.9237   15.1095 H           1 FA4       0.0839
     71 H38        26.0388    1.3652   14.3377 H           1 FA4       0.0839
     72 H39        25.2764    0.6793   16.2087 H           1 FA4       0.2664
     73 H40        22.9626    1.3734   18.3484 H           1 FA4       0.2615
     74 H41        24.1962    0.4108   17.9697 H           1 FA4       0.2615
     75 H42        23.0705    3.2487   15.6538 H           1 FA4       0.2615
     76 H43        22.2937    2.8793   17.0358 H           1 FA4       0.2615
     77 H44        35.0246    7.1958   10.5906 H           1 FA4       0.2490
@<TRIPOS>BOND
     1     1     2  ar
     2     1     6  ar
     3     2     3  ar
     4     3     4  ar
     5     3     7   1
     6     4     5  ar
     7     4    27   1
     8     5     6  ar
     9     7     8   1
    10     8     9   1
    11     9    10   1
    12    10    11   1
    13    11    12   1
    14    12    13   1
    15    13    14   1
    16    14    15   1
    17    15    16   1
    18    16    17  am
    19    16    19   2
    20    17    18   1
    21    18    20   1
    22    18    21   1
    23    20    23   1
    24    21    22  am
    25    21    33   2
    26    22    32   1
    27    23    24   1
    28    24    25   1
    29    25    26   1
    30    27    28   1
    31    28    29  ar
    32    29    30  ar
    33    29    31  ar
    34     1    34   1
    35     2    35   1
    36     5    36   1
    37     6    37   1
    38     7    38   1
    39     7    39   1
    40     8    40   1
    41     8    41   1
    42     9    42   1
    43     9    43   1
    44    10    44   1
    45    10    45   1
    46    11    46   1
    47    11    47   1
    48    12    48   1
    49    12    49   1
    50    13    50   1
    51    13    51   1
    52    14    52   1
    53    14    53   1
    54    15    54   1
    55    15    55   1
    56    17    56   1
    57    18    57   1
    58    20    58   1
    59    20    59   1
    60    22    60   1
    61    23    61   1
    62    23    62   1
    63    24    63   1
    64    24    64   1
    65    25    65   1
    66    25    66   1
    67    26    67   1
    68    26    68   1
    69    26    69   1
    70    27    70   1
    71    27    71   1
    72    28    72   1
    73    30    73   1
    74    30    74   1
    75    31    75   1
    76    31    76   1
    77    32    77   1
@<TRIPOS>SUBSTRUCTURE
     1  FA4      1

