@<TRIPOS>MOLECULE
2d1o_ligand_008
    77    77
SMALL
GAST_HUCK
****
This file was generated by PARSER (from files_GN.cpp)

@<TRIPOS>ATOM
      1 C1         23.4901    3.1972   12.1622 C.ar        1 FA4      -0.0755
      2 C2         24.3232    4.1887   12.7052 C.ar        1 FA4      -0.0668
      3 C3         25.3500    3.8660   13.6308 C.ar        1 FA4      -0.0377
      4 C4         25.5824    2.4900   13.9622 C.ar        1 FA4      -0.0050
      5 C5         24.7384    1.5018   13.3829 C.ar        1 FA4      -0.0635
      6 C6         23.7000    1.8495   12.5017 C.ar        1 FA4      -0.0754
      7 C7         26.1694    4.9922   14.1672 C.3         1 FA4      -0.0215
      8 C8         27.3559    5.3157   13.2139 C.3         1 FA4      -0.0443
      9 C9         28.4898    6.2632   13.7227 C.3         1 FA4      -0.0514
     10 C10        28.6215    6.4999   15.2563 C.3         1 FA4      -0.0529
     11 C11        29.6238    7.6362   15.6211 C.3         1 FA4      -0.0530
     12 C12        29.3353    8.3281   16.9865 C.3         1 FA4      -0.0529
     13 C13        30.0042    9.7305   17.1321 C.3         1 FA4      -0.0510
     14 C14        31.3289    9.7894   17.9372 C.3         1 FA4      -0.0361
     15 C15        32.2961    8.5742   17.8508 C.3         1 FA4       0.0374
     16 C16        33.1605    8.3972   16.6967 C.2         1 FA4       0.1782
     17 N17        33.1931    9.1881   15.6260 N.am        1 FA4      -0.2657
     18 C18        34.1601    9.1233   14.5530 C.3         1 FA4       0.1325
     19 O19        33.9174    7.4274   16.7731 O.2         1 FA4      -0.3969
     20 C20        34.8386   10.5076   14.3003 C.3         1 FA4      -0.0123
     21 C21        33.5992    8.4842   13.3664 C.2         1 FA4       0.2244
     22 N22        34.1333    7.3801   12.8741 N.am        1 FA4      -0.1623
     23 C23        34.1673   11.5914   13.4110 C.3         1 FA4      -0.0440
     24 C24        32.8203   12.1916   13.9085 C.3         1 FA4      -0.0124
     25 C25        32.5944   13.6723   13.5038 C.3         1 FA4      -0.0354
     26 N26        32.8038   13.9453   12.0743 N.4         1 FA4       0.2185
     27 C27        26.5131    2.0336   15.0486 C.3         1 FA4       0.0939
     28 N28        27.6552    2.7801   15.3504 N.pl3       1 FA4      -0.2620
     29 C29        28.7833    2.8436   14.7462 C.cat       1 FA4       0.2900
     30 N30        29.7223    3.5105   15.3050 N.pl3       1 FA4      -0.2847
     31 N31        29.0411    2.2723   13.6326 N.pl3       1 FA4      -0.2847
     32 O32        33.6286    6.7706   11.8385 O.3         1 FA4      -0.2717
     33 O33        32.5936    8.9439   12.8426 O.2         1 FA4      -0.3944
     34 H1         22.7384    3.4524   11.5140 H           1 FA4       0.0541
     35 H2         24.1537    5.1610   12.4382 H           1 FA4       0.0537
     36 H3         24.8451    0.5094   13.6225 H           1 FA4       0.0538
     37 H4         23.0952    1.1239   12.1090 H           1 FA4       0.0541
     38 H5         26.5179    4.7501   15.1707 H           1 FA4       0.0411
     39 H6         25.5498    5.8918   14.2708 H           1 FA4       0.0411
     40 H7         26.9294    5.7605   12.3083 H           1 FA4       0.0286
     41 H8         27.8178    4.3773   12.9023 H           1 FA4       0.0286
     42 H9         28.3438    7.2360   13.2479 H           1 FA4       0.0267
     43 H10        29.4460    5.8743   13.3627 H           1 FA4       0.0267
     44 H11        28.9412    5.5759   15.7471 H           1 FA4       0.0265
     45 H12        27.6371    6.7553   15.6445 H           1 FA4       0.0265
     46 H13        29.5848    8.4023   14.8402 H           1 FA4       0.0265
     47 H14        30.6400    7.2310   15.6383 H           1 FA4       0.0265
     48 H15        29.6388    7.6732   17.8059 H           1 FA4       0.0265
     49 H16        28.2518    8.4598   17.0774 H           1 FA4       0.0265
     50 H17        29.2983   10.3904   17.6490 H           1 FA4       0.0267
     51 H18        30.1624   10.1820   16.1462 H           1 FA4       0.0267
     52 H19        31.0571    9.9018   18.9946 H           1 FA4       0.0290
     53 H20        31.8700   10.6988   17.6481 H           1 FA4       0.0290
     54 H21        31.7072    7.6547   17.9755 H           1 FA4       0.0502
     55 H22        32.9477    8.6613   18.7255 H           1 FA4       0.0502
     56 H23        32.5287    9.8943   15.5807 H           1 FA4       0.1882
     57 H24        34.9929    8.4940   14.8919 H           1 FA4       0.0799
     58 H25        35.8114   10.3038   13.8375 H           1 FA4       0.0312
     59 H26        35.0562   10.9580   15.2745 H           1 FA4       0.0312
     60 H27        34.9055    6.9878   13.3112 H           1 FA4       0.2217
     61 H28        34.0277   11.1908   12.4047 H           1 FA4       0.0269
     62 H29        34.8945   12.4061   13.3270 H           1 FA4       0.0269
     63 H30        32.7796   12.1379   14.9985 H           1 FA4       0.0317
     64 H31        31.9958   11.5933   13.5138 H           1 FA4       0.0317
     65 H32        33.2747   14.3082   14.0724 H           1 FA4       0.0813
     66 H33        31.5731   13.9656   13.7571 H           1 FA4       0.0813
     67 H34        32.6260   14.9357   11.8914 H           1 FA4       0.1994
     68 H35        32.1711   13.3831   11.5071 H           1 FA4       0.1994
     69 H36        33.7701   13.7302   11.8191 H           1 FA4       0.1994
     70 H37        26.8354    0.9918   14.8887 H           1 FA4       0.0839
     71 H38        25.9054    2.0224   15.9590 H           1 FA4       0.0839
     72 H39        27.6194    3.2397   16.1657 H           1 FA4       0.2664
     73 H40        30.5636    3.5729   14.8995 H           1 FA4       0.2615
     74 H41        29.5725    3.9226   16.1298 H           1 FA4       0.2615
     75 H42        28.3894    1.7713   13.1956 H           1 FA4       0.2615
     76 H43        29.8997    2.3419   13.2600 H           1 FA4       0.2615
     77 H44        33.9559    5.8479   11.8912 H           1 FA4       0.2490
@<TRIPOS>BOND
     1     1     2  ar
     2     1     6  ar
     3     2     3  ar
     4     3     4  ar
     5     3     7   1
     6     4     5  ar
     7     4    27   1
     8     5     6  ar
     9     7     8   1
    10     8     9   1
    11     9    10   1
    12    10    11   1
    13    11    12   1
    14    12    13   1
    15    13    14   1
    16    14    15   1
    17    15    16   1
    18    16    17  am
    19    16    19   2
    20    17    18   1
    21    18    20   1
    22    18    21   1
    23    20    23   1
    24    21    22  am
    25    21    33   2
    26    22    32   1
    27    23    24   1
    28    24    25   1
    29    25    26   1
    30    27    28   1
    31    28    29  ar
    32    29    30  ar
    33    29    31  ar
    34     1    34   1
    35     2    35   1
    36     5    36   1
    37     6    37   1
    38     7    38   1
    39     7    39   1
    40     8    40   1
    41     8    41   1
    42     9    42   1
    43     9    43   1
    44    10    44   1
    45    10    45   1
    46    11    46   1
    47    11    47   1
    48    12    48   1
    49    12    49   1
    50    13    50   1
    51    13    51   1
    52    14    52   1
    53    14    53   1
    54    15    54   1
    55    15    55   1
    56    17    56   1
    57    18    57   1
    58    20    58   1
    59    20    59   1
    60    22    60   1
    61    23    61   1
    62    23    62   1
    63    24    63   1
    64    24    64   1
    65    25    65   1
    66    25    66   1
    67    26    67   1
    68    26    68   1
    69    26    69   1
    70    27    70   1
    71    27    71   1
    72    28    72   1
    73    30    73   1
    74    30    74   1
    75    31    75   1
    76    31    76   1
    77    32    77   1
@<TRIPOS>SUBSTRUCTURE
     1  FA4      1

