@<TRIPOS>MOLECULE
2d1o_ligand_024
    77    77
SMALL
GAST_HUCK
****
This file was generated by PARSER (from files_GN.cpp)

@<TRIPOS>ATOM
      1 C1         24.7776    5.4155   12.8989 C.ar        1 FA4      -0.0755
      2 C2         24.4015    4.5943   13.9763 C.ar        1 FA4      -0.0668
      3 C3         25.3604    3.8284   14.6850 C.ar        1 FA4      -0.0377
      4 C4         26.7427    3.9045   14.3105 C.ar        1 FA4      -0.0050
      5 C5         27.1025    4.8027   13.2709 C.ar        1 FA4      -0.0635
      6 C6         26.1345    5.5311   12.5634 C.ar        1 FA4      -0.0754
      7 C7         24.8623    3.0285   15.8519 C.3         1 FA4      -0.0215
      8 C8         24.5712    1.5283   15.5443 C.3         1 FA4      -0.0443
      9 C9         23.1743    1.2197   14.9122 C.3         1 FA4      -0.0514
     10 C10        23.1229    1.1809   13.3609 C.3         1 FA4      -0.0529
     11 C11        21.7287    0.7821   12.7828 C.3         1 FA4      -0.0530
     12 C12        20.5374    1.7489   13.0611 C.3         1 FA4      -0.0529
     13 C13        20.5345    3.0620   12.2118 C.3         1 FA4      -0.0510
     14 C14        19.4526    3.1544   11.0845 C.3         1 FA4      -0.0361
     15 C15        18.1760    3.9906   11.4222 C.3         1 FA4       0.0374
     16 C16        17.3296    3.4341   12.4704 C.2         1 FA4       0.1782
     17 N17        16.0110    3.6737   12.4623 N.am        1 FA4      -0.2657
     18 C18        15.0304    3.1876   13.3901 C.3         1 FA4       0.1325
     19 O19        17.8587    2.8154   13.3877 O.2         1 FA4      -0.3969
     20 C20        13.7494    2.6500   12.6565 C.3         1 FA4      -0.0123
     21 C21        14.7292    4.2434   14.3507 C.2         1 FA4       0.2244
     22 N22        14.6459    5.5053   13.9727 N.am        1 FA4      -0.1623
     23 C23        13.9688    1.9674   11.2731 C.3         1 FA4      -0.0440
     24 C24        15.1190    0.9168   11.2124 C.3         1 FA4      -0.0124
     25 C25        15.9672    1.0333    9.9228 C.3         1 FA4      -0.0354
     26 N26        17.1440    0.1600    9.9654 N.4         1 FA4       0.2185
     27 C27        27.8404    3.1930   15.0395 C.3         1 FA4       0.0939
     28 N28        28.9759    2.9257   14.2578 N.pl3       1 FA4      -0.2620
     29 C29        30.0509    3.6255   14.1311 C.cat       1 FA4       0.2900
     30 N30        30.9654    3.1949   13.3587 N.pl3       1 FA4      -0.2847
     31 N31        30.2676    4.7533   14.7121 N.pl3       1 FA4      -0.2847
     32 O32        14.3730    6.4754   14.8079 O.3         1 FA4      -0.2717
     33 O33        14.5767    3.9482   15.5307 O.2         1 FA4      -0.3944
     34 H1         24.0733    5.9523   12.3893 H           1 FA4       0.0541
     35 H2         23.4059    4.5575   14.2305 H           1 FA4       0.0537
     36 H3         28.0861    4.9412   13.0191 H           1 FA4       0.0538
     37 H4         26.4200    6.1550   11.8033 H           1 FA4       0.0541
     38 H5         23.9640    3.4892   16.2816 H           1 FA4       0.0411
     39 H6         25.5940    3.0916   16.6629 H           1 FA4       0.0411
     40 H7         24.6093    1.0018   16.5059 H           1 FA4       0.0286
     41 H8         25.3665    1.1052   14.9286 H           1 FA4       0.0286
     42 H9         22.4518    1.9451   15.2963 H           1 FA4       0.0267
     43 H10        22.8532    0.2372   15.2737 H           1 FA4       0.0267
     44 H11        23.8485    0.4407   13.0197 H           1 FA4       0.0265
     45 H12        23.4209    2.1395   12.9492 H           1 FA4       0.0265
     46 H13        21.4718   -0.2109   13.1749 H           1 FA4       0.0265
     47 H14        21.8294    0.6722   11.7006 H           1 FA4       0.0265
     48 H15        20.5250    2.0060   14.1188 H           1 FA4       0.0265
     49 H16        19.6211    1.1893   12.8783 H           1 FA4       0.0265
     50 H17        21.5200    3.1866   11.7414 H           1 FA4       0.0267
     51 H18        20.4265    3.9143   12.8856 H           1 FA4       0.0267
     52 H19        19.1569    2.1537   10.7520 H           1 FA4       0.0290
     53 H20        19.9284    3.6364   10.2223 H           1 FA4       0.0290
     54 H21        17.6048    4.0883   10.4900 H           1 FA4       0.0502
     55 H22        18.4812    5.0058   11.7071 H           1 FA4       0.0502
     56 H23        15.6894    4.2502   11.7465 H           1 FA4       0.1882
     57 H24        15.4567    2.3302   13.9230 H           1 FA4       0.0799
     58 H25        13.0463    3.4749   12.4929 H           1 FA4       0.0312
     59 H26        13.2450    1.9354   13.3141 H           1 FA4       0.0312
     60 H27        14.8451    5.7389   13.0483 H           1 FA4       0.2217
     61 H28        14.1420    2.7610   10.5468 H           1 FA4       0.0269
     62 H29        13.0379    1.4767   10.9759 H           1 FA4       0.0269
     63 H30        14.7004   -0.0944   11.2796 H           1 FA4       0.0317
     64 H31        15.7962    1.0371   12.0600 H           1 FA4       0.0317
     65 H32        16.3313    2.0567    9.8105 H           1 FA4       0.0813
     66 H33        15.3619    0.7803    9.0517 H           1 FA4       0.0813
     67 H34        17.7158    0.3325    9.1347 H           1 FA4       0.1994
     68 H35        16.8541   -0.8181    9.9928 H           1 FA4       0.1994
     69 H36        17.6971    0.3695   10.7987 H           1 FA4       0.1994
     70 H37        27.5085    2.2131   15.3786 H           1 FA4       0.0839
     71 H38        28.0747    3.7732   15.9320 H           1 FA4       0.0839
     72 H39        28.9485    2.1381   13.7471 H           1 FA4       0.2664
     73 H40        31.7474    3.6934   13.2310 H           1 FA4       0.2615
     74 H41        30.8575    2.3855   12.9036 H           1 FA4       0.2615
     75 H42        29.6331    5.1230   15.2839 H           1 FA4       0.2615
     76 H43        31.0730    5.1981   14.5566 H           1 FA4       0.2615
     77 H44        14.4339    7.2924   14.2654 H           1 FA4       0.2490
@<TRIPOS>BOND
     1     1     2  ar
     2     1     6  ar
     3     2     3  ar
     4     3     4  ar
     5     3     7   1
     6     4     5  ar
     7     4    27   1
     8     5     6  ar
     9     7     8   1
    10     8     9   1
    11     9    10   1
    12    10    11   1
    13    11    12   1
    14    12    13   1
    15    13    14   1
    16    14    15   1
    17    15    16   1
    18    16    17  am
    19    16    19   2
    20    17    18   1
    21    18    20   1
    22    18    21   1
    23    20    23   1
    24    21    22  am
    25    21    33   2
    26    22    32   1
    27    23    24   1
    28    24    25   1
    29    25    26   1
    30    27    28   1
    31    28    29  ar
    32    29    30  ar
    33    29    31  ar
    34     1    34   1
    35     2    35   1
    36     5    36   1
    37     6    37   1
    38     7    38   1
    39     7    39   1
    40     8    40   1
    41     8    41   1
    42     9    42   1
    43     9    43   1
    44    10    44   1
    45    10    45   1
    46    11    46   1
    47    11    47   1
    48    12    48   1
    49    12    49   1
    50    13    50   1
    51    13    51   1
    52    14    52   1
    53    14    53   1
    54    15    54   1
    55    15    55   1
    56    17    56   1
    57    18    57   1
    58    20    58   1
    59    20    59   1
    60    22    60   1
    61    23    61   1
    62    23    62   1
    63    24    63   1
    64    24    64   1
    65    25    65   1
    66    25    66   1
    67    26    67   1
    68    26    68   1
    69    26    69   1
    70    27    70   1
    71    27    71   1
    72    28    72   1
    73    30    73   1
    74    30    74   1
    75    31    75   1
    76    31    76   1
    77    32    77   1
@<TRIPOS>SUBSTRUCTURE
     1  FA4      1

