@<TRIPOS>MOLECULE
2d1o_ligand_086
    77    77
SMALL
GAST_HUCK
****
This file was generated by PARSER (from files_GN.cpp)

@<TRIPOS>ATOM
      1 C1         24.7574    5.5346   13.0190 C.ar        1 FA4      -0.0755
      2 C2         24.4479    4.7404   14.1338 C.ar        1 FA4      -0.0668
      3 C3         25.4449    3.9830   14.8023 C.ar        1 FA4      -0.0377
      4 C4         26.8081    4.0830   14.3665 C.ar        1 FA4      -0.0050
      5 C5         27.0931    4.9233   13.2587 C.ar        1 FA4      -0.0635
      6 C6         26.0831    5.6197   12.5777 C.ar        1 FA4      -0.0754
      7 C7         24.9913    3.1203   15.9320 C.3         1 FA4      -0.0215
      8 C8         24.7144    1.6406   15.5271 C.3         1 FA4      -0.0443
      9 C9         23.3754    1.3714   14.7660 C.3         1 FA4      -0.0514
     10 C10        23.4768    1.4418   13.2169 C.3         1 FA4      -0.0529
     11 C11        22.1446    1.1566   12.4668 C.3         1 FA4      -0.0530
     12 C12        21.0259    2.2437   12.5471 C.3         1 FA4      -0.0529
     13 C13        21.4538    3.6704   12.0750 C.3         1 FA4      -0.0510
     14 C14        20.3700    4.5156   11.3428 C.3         1 FA4      -0.0361
     15 C15        19.4047    5.3558   12.2277 C.3         1 FA4       0.0374
     16 C16        18.5566    4.6375   13.1700 C.2         1 FA4       0.1782
     17 N17        17.9416    3.5180   12.8042 N.am        1 FA4      -0.2657
     18 C18        16.9367    2.7900   13.5362 C.3         1 FA4       0.1325
     19 O19        18.2704    5.1961   14.2210 O.2         1 FA4      -0.3969
     20 C20        17.5044    1.8519   14.6549 C.3         1 FA4      -0.0123
     21 C21        16.1685    2.0261   12.5556 C.2         1 FA4       0.2244
     22 N22        16.7325    1.0548   11.8555 N.am        1 FA4      -0.1623
     23 C23        18.0071    2.5214   15.9683 C.3         1 FA4      -0.0440
     24 C24        16.8827    3.0924   16.8818 C.3         1 FA4      -0.0124
     25 C25        17.3834    4.0719   17.9734 C.3         1 FA4      -0.0354
     26 N26        18.3668    3.4784   18.8868 N.4         1 FA4       0.2185
     27 C27        27.9472    3.4393   15.0987 C.3         1 FA4       0.0939
     28 N28        29.0615    3.0815   14.3223 N.pl3       1 FA4      -0.2620
     29 C29        30.1441    3.7484   14.1141 C.cat       1 FA4       0.2900
     30 N30        31.0291    3.2067   13.3737 N.pl3       1 FA4      -0.2847
     31 N31        30.3919    4.9137   14.5726 N.pl3       1 FA4      -0.2847
     32 O32        16.0769    0.3560   10.9568 O.3         1 FA4      -0.2717
     33 O33        14.9848    2.2864   12.3731 O.2         1 FA4      -0.3944
     34 H1         24.0222    6.0648   12.5459 H           1 FA4       0.0541
     35 H2         23.4743    4.7019   14.4383 H           1 FA4       0.0537
     36 H3         28.0550    5.0516   12.9351 H           1 FA4       0.0538
     37 H4         26.3183    6.2158   11.7797 H           1 FA4       0.0541
     38 H5         24.0943    3.5309   16.4071 H           1 FA4       0.0411
     39 H6         25.7482    3.1435   16.7146 H           1 FA4       0.0411
     40 H7         24.6853    1.0597   16.4533 H           1 FA4       0.0286
     41 H8         25.5544    1.2496   14.9461 H           1 FA4       0.0286
     42 H9         22.6029    2.0590   15.1196 H           1 FA4       0.0267
     43 H10        23.0426    0.3595   15.0187 H           1 FA4       0.0267
     44 H11        24.2028    0.6935   12.8911 H           1 FA4       0.0265
     45 H12        23.8623    2.4080   12.9061 H           1 FA4       0.0265
     46 H13        21.7331    0.2099   12.8296 H           1 FA4       0.0265
     47 H14        22.3828    1.0115   11.4099 H           1 FA4       0.0265
     48 H15        20.6523    2.3036   13.5746 H           1 FA4       0.0265
     49 H16        20.1983    1.8852   11.9229 H           1 FA4       0.0265
     50 H17        22.2949    3.5645   11.3778 H           1 FA4       0.0267
     51 H18        21.8175    4.2309   12.9387 H           1 FA4       0.0267
     52 H19        19.7895    3.8758   10.6755 H           1 FA4       0.0290
     53 H20        20.8985    5.2296   10.7071 H           1 FA4       0.0290
     54 H21        18.7356    5.9011   11.5563 H           1 FA4       0.0502
     55 H22        19.9956    6.1099   12.7614 H           1 FA4       0.0502
     56 H23        18.1410    3.1992   11.9072 H           1 FA4       0.1882
     57 H24        16.2598    3.5146   13.9903 H           1 FA4       0.0799
     58 H25        18.3374    1.2808   14.2356 H           1 FA4       0.0312
     59 H26        16.7385    1.1290   14.9442 H           1 FA4       0.0312
     60 H27        17.6734    0.8478   12.0066 H           1 FA4       0.2217
     61 H28        18.7414    3.2943   15.7319 H           1 FA4       0.0269
     62 H29        18.5384    1.7609   16.5516 H           1 FA4       0.0269
     63 H30        16.3634    2.2603   17.3660 H           1 FA4       0.0317
     64 H31        16.1533    3.6327   16.2831 H           1 FA4       0.0317
     65 H32        16.5317    4.4055   18.5728 H           1 FA4       0.0813
     66 H33        17.8328    4.9487   17.5058 H           1 FA4       0.0813
     67 H34        18.6213    4.1638   19.6075 H           1 FA4       0.1994
     68 H35        19.2082    3.2117   18.3693 H           1 FA4       0.1994
     69 H36        17.9715    2.6493   19.3401 H           1 FA4       0.1994
     70 H37        27.6198    2.4961   15.5328 H           1 FA4       0.0839
     71 H38        28.2281    4.0863   15.9337 H           1 FA4       0.0839
     72 H39        29.0113    2.2526   13.8954 H           1 FA4       0.2664
     73 H40        31.8260    3.6581   13.1816 H           1 FA4       0.2615
     74 H41        30.8838    2.3609   13.0050 H           1 FA4       0.2615
     75 H42        29.7682    5.3611   15.1033 H           1 FA4       0.2615
     76 H43        31.1987    5.3357   14.3582 H           1 FA4       0.2615
     77 H44        16.6479   -0.4220   10.7667 H           1 FA4       0.2490
@<TRIPOS>BOND
     1     1     2  ar
     2     1     6  ar
     3     2     3  ar
     4     3     4  ar
     5     3     7   1
     6     4     5  ar
     7     4    27   1
     8     5     6  ar
     9     7     8   1
    10     8     9   1
    11     9    10   1
    12    10    11   1
    13    11    12   1
    14    12    13   1
    15    13    14   1
    16    14    15   1
    17    15    16   1
    18    16    17  am
    19    16    19   2
    20    17    18   1
    21    18    20   1
    22    18    21   1
    23    20    23   1
    24    21    22  am
    25    21    33   2
    26    22    32   1
    27    23    24   1
    28    24    25   1
    29    25    26   1
    30    27    28   1
    31    28    29  ar
    32    29    30  ar
    33    29    31  ar
    34     1    34   1
    35     2    35   1
    36     5    36   1
    37     6    37   1
    38     7    38   1
    39     7    39   1
    40     8    40   1
    41     8    41   1
    42     9    42   1
    43     9    43   1
    44    10    44   1
    45    10    45   1
    46    11    46   1
    47    11    47   1
    48    12    48   1
    49    12    49   1
    50    13    50   1
    51    13    51   1
    52    14    52   1
    53    14    53   1
    54    15    54   1
    55    15    55   1
    56    17    56   1
    57    18    57   1
    58    20    58   1
    59    20    59   1
    60    22    60   1
    61    23    61   1
    62    23    62   1
    63    24    63   1
    64    24    64   1
    65    25    65   1
    66    25    66   1
    67    26    67   1
    68    26    68   1
    69    26    69   1
    70    27    70   1
    71    27    71   1
    72    28    72   1
    73    30    73   1
    74    30    74   1
    75    31    75   1
    76    31    76   1
    77    32    77   1
@<TRIPOS>SUBSTRUCTURE
     1  FA4      1

