@<TRIPOS>MOLECULE
2d1o_ligand_007
    77    77
SMALL
GAST_HUCK
****
This file was generated by PARSER (from files_GN.cpp)

@<TRIPOS>ATOM
      1 C1         22.7447    6.1687   12.8931 C.ar        1 FA4      -0.0755
      2 C2         23.7958    5.5844   13.6144 C.ar        1 FA4      -0.0668
      3 C3         23.7313    4.2404   14.0608 C.ar        1 FA4      -0.0377
      4 C4         22.5496    3.4792   13.7769 C.ar        1 FA4      -0.0050
      5 C5         21.4972    4.0926   13.0511 C.ar        1 FA4      -0.0635
      6 C6         21.5962    5.4211   12.6044 C.ar        1 FA4      -0.0754
      7 C7         24.9302    3.6891   14.7719 C.3         1 FA4      -0.0215
      8 C8         26.0443    3.1891   13.8033 C.3         1 FA4      -0.0443
      9 C9         27.1222    4.2400   13.3877 C.3         1 FA4      -0.0514
     10 C10        28.5241    4.0200   14.0246 C.3         1 FA4      -0.0529
     11 C11        28.6337    4.2867   15.5527 C.3         1 FA4      -0.0530
     12 C12        28.4540    5.7631   16.0192 C.3         1 FA4      -0.0529
     13 C13        29.4395    6.7854   15.3812 C.3         1 FA4      -0.0510
     14 C14        29.5111    8.1456   16.1418 C.3         1 FA4      -0.0361
     15 C15        30.6679    8.2514   17.1822 C.3         1 FA4       0.0374
     16 C16        31.9986    8.0207   16.6334 C.2         1 FA4       0.1782
     17 N17        32.4121    8.7909   15.6385 N.am        1 FA4      -0.2657
     18 C18        33.6310    8.7092   14.8826 C.3         1 FA4       0.1325
     19 O19        32.7041    7.1407   17.1145 O.2         1 FA4      -0.3969
     20 C20        34.3232   10.1099   14.8779 C.3         1 FA4      -0.0123
     21 C21        33.2819    8.2602   13.5431 C.2         1 FA4       0.2244
     22 N22        33.9097    7.2396   12.9770 N.am        1 FA4      -0.1623
     23 C23        35.3108   10.3432   16.0655 C.3         1 FA4      -0.0440
     24 C24        36.7975   10.5748   15.6759 C.3         1 FA4      -0.0124
     25 C25        37.5186    9.3439   15.0753 C.3         1 FA4      -0.0354
     26 N26        38.8738    9.1990   15.6272 N.4         1 FA4       0.2185
     27 C27        22.3566    2.0592   14.2124 C.3         1 FA4       0.0939
     28 N28        23.2712    1.1639   13.6510 N.pl3       1 FA4      -0.2620
     29 C29        23.4569    0.8904   12.4109 C.cat       1 FA4       0.2900
     30 N30        24.3912    0.0670   12.1242 N.pl3       1 FA4      -0.2847
     31 N31        22.7808    1.3891   11.4430 N.pl3       1 FA4      -0.2847
     32 O32        33.5656    6.7929   11.8003 O.3         1 FA4      -0.2717
     33 O33        32.3860    8.8314   12.9311 O.2         1 FA4      -0.3944
     34 H1         22.8145    7.1397   12.5729 H           1 FA4       0.0541
     35 H2         24.6157    6.1595   13.8177 H           1 FA4       0.0537
     36 H3         20.6467    3.5749   12.8275 H           1 FA4       0.0538
     37 H4         20.8275    5.8415   12.0735 H           1 FA4       0.0541
     38 H5         24.6331    2.8588   15.4149 H           1 FA4       0.0411
     39 H6         25.3494    4.4345   15.4520 H           1 FA4       0.0411
     40 H7         25.5794    2.8017   12.8947 H           1 FA4       0.0286
     41 H8         26.5373    2.3308   14.2705 H           1 FA4       0.0286
     42 H9         26.7889    5.2565   13.5989 H           1 FA4       0.0267
     43 H10        27.2561    4.1820   12.3024 H           1 FA4       0.0267
     44 H11        29.2454    4.6560   13.5093 H           1 FA4       0.0265
     45 H12        28.8293    2.9883   13.8319 H           1 FA4       0.0265
     46 H13        29.6260    3.9574   15.8776 H           1 FA4       0.0265
     47 H14        27.9041    3.6655   16.0821 H           1 FA4       0.0265
     48 H15        28.5787    5.7779   17.1058 H           1 FA4       0.0265
     49 H16        27.4287    6.0872   15.8063 H           1 FA4       0.0265
     50 H17        29.1077    6.9800   14.3564 H           1 FA4       0.0267
     51 H18        30.4365    6.3385   15.3155 H           1 FA4       0.0267
     52 H19        28.5644    8.3126   16.6626 H           1 FA4       0.0290
     53 H20        29.6119    8.9526   15.4104 H           1 FA4       0.0290
     54 H21        30.4597    7.5526   18.0081 H           1 FA4       0.0502
     55 H22        30.6452    9.2589   17.6121 H           1 FA4       0.0502
     56 H23        31.7669    9.4521   15.3329 H           1 FA4       0.1882
     57 H24        34.3136    7.9862   15.3363 H           1 FA4       0.0799
     58 H25        33.5446   10.8850   14.9150 H           1 FA4       0.0312
     59 H26        34.8498   10.2521   13.9321 H           1 FA4       0.0312
     60 H27        34.6395    6.8067   13.4545 H           1 FA4       0.2217
     61 H28        35.2596    9.5026   16.7688 H           1 FA4       0.0269
     62 H29        34.9818   11.2299   16.6197 H           1 FA4       0.0269
     63 H30        37.3284   10.8813   16.5768 H           1 FA4       0.0317
     64 H31        36.8524   11.3964   14.9638 H           1 FA4       0.0317
     65 H32        37.5957    9.4442   13.9901 H           1 FA4       0.0813
     66 H33        36.9654    8.4243   15.2962 H           1 FA4       0.0813
     67 H34        39.3290    8.3925   15.1958 H           1 FA4       0.1994
     68 H35        38.8123    9.0522   16.6403 H           1 FA4       0.1994
     69 H36        39.4217   10.0434   15.4336 H           1 FA4       0.1994
     70 H37        21.3477    1.6930   14.0018 H           1 FA4       0.0839
     71 H38        22.4614    2.0193   15.2980 H           1 FA4       0.0839
     72 H39        23.8324    0.7185   14.2555 H           1 FA4       0.2664
     73 H40        24.5704   -0.1516   11.2342 H           1 FA4       0.2615
     74 H41        24.9145   -0.3028   12.8059 H           1 FA4       0.2615
     75 H42        22.0893    1.9932   11.6162 H           1 FA4       0.2615
     76 H43        22.9771    1.1521   10.5605 H           1 FA4       0.2615
     77 H44        33.8925    5.8616   11.7895 H           1 FA4       0.2490
@<TRIPOS>BOND
     1     1     2  ar
     2     1     6  ar
     3     2     3  ar
     4     3     4  ar
     5     3     7   1
     6     4     5  ar
     7     4    27   1
     8     5     6  ar
     9     7     8   1
    10     8     9   1
    11     9    10   1
    12    10    11   1
    13    11    12   1
    14    12    13   1
    15    13    14   1
    16    14    15   1
    17    15    16   1
    18    16    17  am
    19    16    19   2
    20    17    18   1
    21    18    20   1
    22    18    21   1
    23    20    23   1
    24    21    22  am
    25    21    33   2
    26    22    32   1
    27    23    24   1
    28    24    25   1
    29    25    26   1
    30    27    28   1
    31    28    29  ar
    32    29    30  ar
    33    29    31  ar
    34     1    34   1
    35     2    35   1
    36     5    36   1
    37     6    37   1
    38     7    38   1
    39     7    39   1
    40     8    40   1
    41     8    41   1
    42     9    42   1
    43     9    43   1
    44    10    44   1
    45    10    45   1
    46    11    46   1
    47    11    47   1
    48    12    48   1
    49    12    49   1
    50    13    50   1
    51    13    51   1
    52    14    52   1
    53    14    53   1
    54    15    54   1
    55    15    55   1
    56    17    56   1
    57    18    57   1
    58    20    58   1
    59    20    59   1
    60    22    60   1
    61    23    61   1
    62    23    62   1
    63    24    63   1
    64    24    64   1
    65    25    65   1
    66    25    66   1
    67    26    67   1
    68    26    68   1
    69    26    69   1
    70    27    70   1
    71    27    71   1
    72    28    72   1
    73    30    73   1
    74    30    74   1
    75    31    75   1
    76    31    76   1
    77    32    77   1
@<TRIPOS>SUBSTRUCTURE
     1  FA4      1

