@<TRIPOS>MOLECULE
2d1o_ligand_064
    77    77
SMALL
GAST_HUCK
****
This file was generated by PARSER (from files_GN.cpp)

@<TRIPOS>ATOM
      1 C1         25.8640    3.9162   12.5046 C.ar        1 FA4      -0.0755
      2 C2         26.7147    4.9865   12.8123 C.ar        1 FA4      -0.0668
      3 C3         27.7826    4.8549   13.7413 C.ar        1 FA4      -0.0377
      4 C4         27.9896    3.5750   14.3667 C.ar        1 FA4      -0.0050
      5 C5         27.0920    2.5176   14.0512 C.ar        1 FA4      -0.0635
      6 C6         26.0535    2.6754   13.1270 C.ar        1 FA4      -0.0754
      7 C7         28.6442    6.0628   13.9628 C.3         1 FA4      -0.0215
      8 C8         28.7567    6.5255   15.4432 C.3         1 FA4      -0.0443
      9 C9         29.9185    7.5400   15.7088 C.3         1 FA4      -0.0514
     10 C10        30.4453    7.5719   17.1696 C.3         1 FA4      -0.0529
     11 C11        29.3456    7.4537   18.2623 C.3         1 FA4      -0.0530
     12 C12        29.9374    7.4366   19.6976 C.3         1 FA4      -0.0529
     13 C13        28.8729    7.2714   20.8191 C.3         1 FA4      -0.0510
     14 C14        28.3145    8.6158   21.3872 C.3         1 FA4      -0.0361
     15 C15        27.0463    8.4793   22.2749 C.3         1 FA4       0.0374
     16 C16        27.0218    7.3423   23.1718 C.2         1 FA4       0.1782
     17 N17        26.3626    6.2313   22.8301 N.am        1 FA4      -0.2657
     18 C18        26.0515    5.0856   23.6393 C.3         1 FA4       0.1325
     19 O19        27.5723    7.4436   24.2721 O.2         1 FA4      -0.3969
     20 C20        24.9585    5.4678   24.6930 C.3         1 FA4      -0.0123
     21 C21        27.2416    4.4086   24.1525 C.2         1 FA4       0.2244
     22 N22        28.1981    4.0555   23.3077 N.am        1 FA4      -0.1623
     23 C23        23.5195    5.6571   24.0937 C.3         1 FA4      -0.0440
     24 C24        22.8808    7.0591   24.2886 C.3         1 FA4      -0.0124
     25 C25        23.2603    8.0974   23.2050 C.3         1 FA4      -0.0354
     26 N26        22.8755    7.6585   21.8541 N.4         1 FA4       0.2185
     27 C27        29.0141    3.2721   15.4231 C.3         1 FA4       0.0939
     28 N28        30.2434    3.9356   15.3924 N.pl3       1 FA4      -0.2620
     29 C29        31.1220    3.9279   14.4644 C.cat       1 FA4       0.2900
     30 N30        32.1910    4.6017   14.6624 N.pl3       1 FA4      -0.2847
     31 N31        31.0042    3.3040   13.3533 N.pl3       1 FA4      -0.2847
     32 O32        29.2600    3.3906   23.6748 O.3         1 FA4      -0.2717
     33 O33        27.3577    4.1391   25.3405 O.2         1 FA4      -0.3944
     34 H1         25.0995    4.0418   11.8360 H           1 FA4       0.0541
     35 H2         26.5400    5.8776   12.3407 H           1 FA4       0.0537
     36 H3         27.1774    1.6083   14.5120 H           1 FA4       0.0538
     37 H4         25.4307    1.8944   12.9095 H           1 FA4       0.0541
     38 H5         28.2742    6.9222   13.3956 H           1 FA4       0.0411
     39 H6         29.6328    5.8584   13.5592 H           1 FA4       0.0411
     40 H7         28.8791    5.6543   16.0840 H           1 FA4       0.0286
     41 H8         27.8089    6.9865   15.7318 H           1 FA4       0.0286
     42 H9         29.5933    8.5459   15.4406 H           1 FA4       0.0267
     43 H10        30.7710    7.3068   15.0645 H           1 FA4       0.0267
     44 H11        30.9786    8.5154   17.3167 H           1 FA4       0.0265
     45 H12        31.1672    6.7597   17.2904 H           1 FA4       0.0265
     46 H13        28.7913    6.5252   18.1130 H           1 FA4       0.0265
     47 H14        28.6420    8.2847   18.1606 H           1 FA4       0.0265
     48 H15        30.5076    8.3519   19.8724 H           1 FA4       0.0265
     49 H16        30.6322    6.5967   19.7679 H           1 FA4       0.0265
     50 H17        29.3326    6.7154   21.6441 H           1 FA4       0.0267
     51 H18        28.0618    6.6457   20.4368 H           1 FA4       0.0267
     52 H19        28.0521    9.2823   20.5638 H           1 FA4       0.0290
     53 H20        29.0998    9.1210   21.9605 H           1 FA4       0.0290
     54 H21        26.1757    8.4623   21.6127 H           1 FA4       0.0502
     55 H22        26.9570    9.3852   22.8787 H           1 FA4       0.0502
     56 H23        25.9668    6.2417   21.9420 H           1 FA4       0.1882
     57 H24        25.5792    4.3560   22.9753 H           1 FA4       0.0799
     58 H25        25.2741    6.3710   25.2236 H           1 FA4       0.0312
     59 H26        24.8976    4.6749   25.4463 H           1 FA4       0.0312
     60 H27        28.0853    4.2500   22.3629 H           1 FA4       0.2217
     61 H28        22.8587    4.9249   24.5687 H           1 FA4       0.0269
     62 H29        23.5092    5.4235   23.0256 H           1 FA4       0.0269
     63 H30        23.1576    7.4464   25.2717 H           1 FA4       0.0317
     64 H31        21.7934    6.9521   24.2809 H           1 FA4       0.0317
     65 H32        24.3326    8.2972   23.2214 H           1 FA4       0.0813
     66 H33        22.7374    9.0341   23.4098 H           1 FA4       0.0813
     67 H34        22.9407    8.4484   21.2088 H           1 FA4       0.1994
     68 H35        21.9139    7.3124   21.8640 H           1 FA4       0.1994
     69 H36        23.4999    6.9136   21.5393 H           1 FA4       0.1994
     70 H37        29.2389    2.2009   15.4434 H           1 FA4       0.0839
     71 H38        28.5507    3.4917   16.3852 H           1 FA4       0.0839
     72 H39        30.4657    4.4093   16.1664 H           1 FA4       0.2664
     73 H40        32.8502    4.6308   14.0036 H           1 FA4       0.2615
     74 H41        32.3084    5.0756   15.4606 H           1 FA4       0.2615
     75 H42        30.2376    2.8062   13.1715 H           1 FA4       0.2615
     76 H43        31.6931    3.3449   12.7226 H           1 FA4       0.2615
     77 H44        29.0675    2.4607   23.4130 H           1 FA4       0.2490
@<TRIPOS>BOND
     1     1     2  ar
     2     1     6  ar
     3     2     3  ar
     4     3     4  ar
     5     3     7   1
     6     4     5  ar
     7     4    27   1
     8     5     6  ar
     9     7     8   1
    10     8     9   1
    11     9    10   1
    12    10    11   1
    13    11    12   1
    14    12    13   1
    15    13    14   1
    16    14    15   1
    17    15    16   1
    18    16    17  am
    19    16    19   2
    20    17    18   1
    21    18    20   1
    22    18    21   1
    23    20    23   1
    24    21    22  am
    25    21    33   2
    26    22    32   1
    27    23    24   1
    28    24    25   1
    29    25    26   1
    30    27    28   1
    31    28    29  ar
    32    29    30  ar
    33    29    31  ar
    34     1    34   1
    35     2    35   1
    36     5    36   1
    37     6    37   1
    38     7    38   1
    39     7    39   1
    40     8    40   1
    41     8    41   1
    42     9    42   1
    43     9    43   1
    44    10    44   1
    45    10    45   1
    46    11    46   1
    47    11    47   1
    48    12    48   1
    49    12    49   1
    50    13    50   1
    51    13    51   1
    52    14    52   1
    53    14    53   1
    54    15    54   1
    55    15    55   1
    56    17    56   1
    57    18    57   1
    58    20    58   1
    59    20    59   1
    60    22    60   1
    61    23    61   1
    62    23    62   1
    63    24    63   1
    64    24    64   1
    65    25    65   1
    66    25    66   1
    67    26    67   1
    68    26    68   1
    69    26    69   1
    70    27    70   1
    71    27    71   1
    72    28    72   1
    73    30    73   1
    74    30    74   1
    75    31    75   1
    76    31    76   1
    77    32    77   1
@<TRIPOS>SUBSTRUCTURE
     1  FA4      1

