@<TRIPOS>MOLECULE
2d1o_ligand_071
    77    77
SMALL
GAST_HUCK
****
This file was generated by PARSER (from files_GN.cpp)

@<TRIPOS>ATOM
      1 C1         26.0842    3.8403   12.5189 C.ar        1 FA4      -0.0755
      2 C2         26.8439    4.9558   12.9046 C.ar        1 FA4      -0.0668
      3 C3         27.8413    4.8751   13.9156 C.ar        1 FA4      -0.0377
      4 C4         28.0832    3.5963   14.5211 C.ar        1 FA4      -0.0050
      5 C5         27.2846    2.4891   14.1271 C.ar        1 FA4      -0.0635
      6 C6         26.2955    2.6060   13.1385 C.ar        1 FA4      -0.0754
      7 C7         28.6092    6.1337   14.2158 C.3         1 FA4      -0.0215
      8 C8         28.6398    6.5896   15.7050 C.3         1 FA4      -0.0443
      9 C9         29.4538    7.9015   15.9454 C.3         1 FA4      -0.0514
     10 C10        30.8156    7.7026   16.6693 C.3         1 FA4      -0.0529
     11 C11        31.6716    9.0010   16.7184 C.3         1 FA4      -0.0530
     12 C12        33.1626    8.7383   17.0754 C.3         1 FA4      -0.0529
     13 C13        34.1030    9.9720   16.9305 C.3         1 FA4      -0.0510
     14 C14        33.8771   10.8166   15.6371 C.3         1 FA4      -0.0361
     15 C15        35.1304   11.5417   15.0811 C.3         1 FA4       0.0374
     16 C16        35.5252   12.7201   15.8293 C.2         1 FA4       0.1782
     17 N17        36.3808   12.6012   16.8379 N.am        1 FA4      -0.2657
     18 C18        36.9886   13.6644   17.5923 C.3         1 FA4       0.1325
     19 O19        35.0879   13.8111   15.4852 O.2         1 FA4      -0.3969
     20 C20        37.9326   13.0842   18.6920 C.3         1 FA4      -0.0123
     21 C21        35.9864   14.5391   18.2027 C.2         1 FA4       0.2244
     22 N22        36.0545   15.8514   18.0445 N.am        1 FA4      -0.1623
     23 C23        39.1698   12.3202   18.1394 C.3         1 FA4      -0.0440
     24 C24        40.1743   11.8617   19.2355 C.3         1 FA4      -0.0124
     25 C25        39.7197   10.6589   20.1035 C.3         1 FA4      -0.0354
     26 N26        39.7765    9.3906   19.3673 N.4         1 FA4       0.2185
     27 C27        29.0941    3.3219   15.5993 C.3         1 FA4       0.0939
     28 N28        30.3451    3.9365   15.5065 N.pl3       1 FA4      -0.2620
     29 C29        31.1681    3.9279   14.5281 C.cat       1 FA4       0.2900
     30 N30        32.2442    4.5972   14.6658 N.pl3       1 FA4      -0.2847
     31 N31        31.0032    3.3183   13.4133 N.pl3       1 FA4      -0.2847
     32 O32        35.2101   16.6729   18.6089 O.3         1 FA4      -0.2717
     33 O33        35.0949   14.0478   18.8823 O.2         1 FA4      -0.3944
     34 H1         25.3640    3.9300   11.7964 H           1 FA4       0.0541
     35 H2         26.6587    5.8377   12.4188 H           1 FA4       0.0537
     36 H3         27.4035    1.5723   14.5719 H           1 FA4       0.0538
     37 H4         25.7294    1.7967   12.8795 H           1 FA4       0.0541
     38 H5         28.1905    6.9734   13.6520 H           1 FA4       0.0411
     39 H6         29.6233    6.0309   13.8398 H           1 FA4       0.0411
     40 H7         29.0284    5.8075   16.3558 H           1 FA4       0.0286
     41 H8         27.6087    6.7627   16.0110 H           1 FA4       0.0286
     42 H9         28.8479    8.5751   16.5543 H           1 FA4       0.0267
     43 H10        29.6250    8.4048   14.9902 H           1 FA4       0.0267
     44 H11        31.3868    6.9271   16.1497 H           1 FA4       0.0265
     45 H12        30.6225    7.3604   17.6909 H           1 FA4       0.0265
     46 H13        31.2467    9.6947   17.4507 H           1 FA4       0.0265
     47 H14        31.6192    9.4724   15.7359 H           1 FA4       0.0265
     48 H15        33.5497    7.9425   16.4345 H           1 FA4       0.0265
     49 H16        33.2166    8.3788   18.1106 H           1 FA4       0.0265
     50 H17        35.1275    9.5903   16.9329 H           1 FA4       0.0267
     51 H18        33.9913   10.6169   17.8093 H           1 FA4       0.0267
     52 H19        33.0871   11.5496   15.8232 H           1 FA4       0.0290
     53 H20        33.5251   10.1546   14.8408 H           1 FA4       0.0290
     54 H21        34.9307   11.8365   14.0462 H           1 FA4       0.0502
     55 H22        35.9563   10.8262   15.0398 H           1 FA4       0.0502
     56 H23        36.6633   11.6993   17.0576 H           1 FA4       0.1882
     57 H24        37.6094   14.2413   16.8999 H           1 FA4       0.0799
     58 H25        37.3576   12.4093   19.3280 H           1 FA4       0.0312
     59 H26        38.2977   13.9029   19.3204 H           1 FA4       0.0312
     60 H27        36.7664   16.2246   17.5010 H           1 FA4       0.2217
     61 H28        39.7045   12.9816   17.4492 H           1 FA4       0.0269
     62 H29        38.8422   11.4505   17.5678 H           1 FA4       0.0269
     63 H30        40.3863   12.7076   19.8974 H           1 FA4       0.0317
     64 H31        41.1169   11.5897   18.7527 H           1 FA4       0.0317
     65 H32        38.7062   10.8089   20.4775 H           1 FA4       0.0813
     66 H33        40.3853   10.5698   20.9652 H           1 FA4       0.0813
     67 H34        39.3963    8.6399   19.9481 H           1 FA4       0.1994
     68 H35        40.7505    9.1828   19.1355 H           1 FA4       0.1994
     69 H36        39.2279    9.4558   18.5087 H           1 FA4       0.1994
     70 H37        29.3034    2.2500   15.6792 H           1 FA4       0.0839
     71 H38        28.6439    3.6125   16.5511 H           1 FA4       0.0839
     72 H39        30.6186    4.4071   16.2700 H           1 FA4       0.2664
     73 H40        32.8576    4.6473   13.9608 H           1 FA4       0.2615
     74 H41        32.4099    5.0548   15.4656 H           1 FA4       0.2615
     75 H42        30.2426    2.7997   13.2640 H           1 FA4       0.2615
     76 H43        31.6591    3.3901   12.7492 H           1 FA4       0.2615
     77 H44        35.6636   17.5450   18.5977 H           1 FA4       0.2490
@<TRIPOS>BOND
     1     1     2  ar
     2     1     6  ar
     3     2     3  ar
     4     3     4  ar
     5     3     7   1
     6     4     5  ar
     7     4    27   1
     8     5     6  ar
     9     7     8   1
    10     8     9   1
    11     9    10   1
    12    10    11   1
    13    11    12   1
    14    12    13   1
    15    13    14   1
    16    14    15   1
    17    15    16   1
    18    16    17  am
    19    16    19   2
    20    17    18   1
    21    18    20   1
    22    18    21   1
    23    20    23   1
    24    21    22  am
    25    21    33   2
    26    22    32   1
    27    23    24   1
    28    24    25   1
    29    25    26   1
    30    27    28   1
    31    28    29  ar
    32    29    30  ar
    33    29    31  ar
    34     1    34   1
    35     2    35   1
    36     5    36   1
    37     6    37   1
    38     7    38   1
    39     7    39   1
    40     8    40   1
    41     8    41   1
    42     9    42   1
    43     9    43   1
    44    10    44   1
    45    10    45   1
    46    11    46   1
    47    11    47   1
    48    12    48   1
    49    12    49   1
    50    13    50   1
    51    13    51   1
    52    14    52   1
    53    14    53   1
    54    15    54   1
    55    15    55   1
    56    17    56   1
    57    18    57   1
    58    20    58   1
    59    20    59   1
    60    22    60   1
    61    23    61   1
    62    23    62   1
    63    24    63   1
    64    24    64   1
    65    25    65   1
    66    25    66   1
    67    26    67   1
    68    26    68   1
    69    26    69   1
    70    27    70   1
    71    27    71   1
    72    28    72   1
    73    30    73   1
    74    30    74   1
    75    31    75   1
    76    31    76   1
    77    32    77   1
@<TRIPOS>SUBSTRUCTURE
     1  FA4      1

