@<TRIPOS>MOLECULE
2d1o_ligand_073
    77    77
SMALL
GAST_HUCK
****
This file was generated by PARSER (from files_GN.cpp)

@<TRIPOS>ATOM
      1 C1         31.7281   11.4725   21.1718 C.ar        1 FA4      -0.0755
      2 C2         31.0931   10.4844   20.3968 C.ar        1 FA4      -0.0668
      3 C3         29.8065   10.6948   19.8373 C.ar        1 FA4      -0.0377
      4 C4         29.2226   12.0013   19.9640 C.ar        1 FA4      -0.0050
      5 C5         29.8706   12.9759   20.7596 C.ar        1 FA4      -0.0635
      6 C6         31.1061   12.7121   21.3702 C.ar        1 FA4      -0.0754
      7 C7         29.1750    9.6086   19.0035 C.3         1 FA4      -0.0215
      8 C8         29.4319    8.1048   19.3407 C.3         1 FA4      -0.0443
      9 C9         29.6549    7.1616   18.1037 C.3         1 FA4      -0.0514
     10 C10        31.1362    6.8530   17.7160 C.3         1 FA4      -0.0529
     11 C11        31.7763    7.6486   16.5402 C.3         1 FA4      -0.0530
     12 C12        31.7582    9.1964   16.6985 C.3         1 FA4      -0.0529
     13 C13        32.8918    9.9484   15.9525 C.3         1 FA4      -0.0510
     14 C14        34.1462   10.2261   16.8369 C.3         1 FA4      -0.0361
     15 C15        35.3221   10.9339   16.1050 C.3         1 FA4       0.0374
     16 C16        35.9703   10.1084   15.1040 C.2         1 FA4       0.1782
     17 N17        35.4545   10.0501   13.8801 N.am        1 FA4      -0.2657
     18 C18        35.8243    9.1670   12.8139 C.3         1 FA4       0.1325
     19 O19        36.9778    9.4797   15.4063 O.2         1 FA4      -0.3969
     20 C20        36.7028    9.8801   11.7339 C.3         1 FA4      -0.0123
     21 C21        34.6109    8.5474   12.3028 C.2         1 FA4       0.2244
     22 N22        34.2759    7.3122   12.6374 N.am        1 FA4      -0.1623
     23 C23        36.1147   11.0750   10.9240 C.3         1 FA4      -0.0440
     24 C24        36.1291   12.4439   11.6631 C.3         1 FA4      -0.0124
     25 C25        35.3725   13.5736   10.9192 C.3         1 FA4      -0.0354
     26 N26        36.0721   14.0067    9.7036 N.4         1 FA4       0.2185
     27 C27        27.9654   12.4033   19.2508 C.3         1 FA4       0.0939
     28 N28        28.0984   12.3244   17.8609 N.pl3       1 FA4      -0.2620
     29 C29        28.7514   13.1226   17.0874 C.cat       1 FA4       0.2900
     30 N30        28.7604   12.8596   15.8409 N.pl3       1 FA4      -0.2847
     31 N31        29.3907   14.1593   17.4836 N.pl3       1 FA4      -0.2847
     32 O32        33.1657    6.7723   12.2188 O.3         1 FA4      -0.2717
     33 O33        33.8451    9.2116   11.6045 O.2         1 FA4      -0.3944
     34 H1         32.6474   11.2951   21.5799 H           1 FA4       0.0541
     35 H2         31.5981    9.6064   20.2546 H           1 FA4       0.0537
     36 H3         29.4605   13.9072   20.8782 H           1 FA4       0.0538
     37 H4         31.5611   13.4358   21.9370 H           1 FA4       0.0541
     38 H5         29.4613    9.8155   17.9668 H           1 FA4       0.0411
     39 H6         28.0894    9.7233   19.0265 H           1 FA4       0.0411
     40 H7         28.5528    7.7291   19.8775 H           1 FA4       0.0286
     41 H8         30.2640    7.9827   20.0467 H           1 FA4       0.0286
     42 H9         29.1079    7.5450   17.2372 H           1 FA4       0.0267
     43 H10        29.1853    6.2023   18.3511 H           1 FA4       0.0267
     44 H11        31.1968    5.8001   17.4217 H           1 FA4       0.0265
     45 H12        31.7835    6.9551   18.5909 H           1 FA4       0.0265
     46 H13        31.2639    7.3879   15.6099 H           1 FA4       0.0265
     47 H14        32.8099    7.3097   16.4337 H           1 FA4       0.0265
     48 H15        31.8080    9.4682   17.7510 H           1 FA4       0.0265
     49 H16        30.7997    9.5561   16.3104 H           1 FA4       0.0265
     50 H17        32.5001   10.9139   15.6155 H           1 FA4       0.0267
     51 H18        33.1729    9.3724   15.0698 H           1 FA4       0.0267
     52 H19        34.5035    9.2860   17.2727 H           1 FA4       0.0290
     53 H20        33.8369   10.8692   17.6689 H           1 FA4       0.0290
     54 H21        36.0566   11.2272   16.8641 H           1 FA4       0.0502
     55 H22        34.9691   11.8604   15.6408 H           1 FA4       0.0502
     56 H23        34.6813   10.6144   13.7204 H           1 FA4       0.1882
     57 H24        36.4589    8.3783   13.2313 H           1 FA4       0.0799
     58 H25        36.9984    9.1163   11.0060 H           1 FA4       0.0312
     59 H26        37.6300   10.2174   12.2132 H           1 FA4       0.0312
     60 H27        34.8413    6.8166   13.2564 H           1 FA4       0.2217
     61 H28        35.0890   10.8336   10.6081 H           1 FA4       0.0269
     62 H29        36.7252   11.1819   10.0185 H           1 FA4       0.0269
     63 H30        37.1664   12.7588   11.8187 H           1 FA4       0.0317
     64 H31        35.6597   12.3335   12.6446 H           1 FA4       0.0317
     65 H32        35.2828   14.4395   11.5807 H           1 FA4       0.0813
     66 H33        34.3666   13.2409   10.6550 H           1 FA4       0.0813
     67 H34        35.5764   14.8031    9.2917 H           1 FA4       0.1994
     68 H35        36.0978   13.2377    9.0297 H           1 FA4       0.1994
     69 H36        37.0287   14.2886    9.9405 H           1 FA4       0.1994
     70 H37        27.6399   13.4120   19.5195 H           1 FA4       0.0839
     71 H38        27.1576   11.7435   19.5693 H           1 FA4       0.0839
     72 H39        27.6630   11.6164   17.4323 H           1 FA4       0.2664
     73 H40        29.2237   13.4126   15.2460 H           1 FA4       0.2615
     74 H41        28.3082   12.1073   15.5198 H           1 FA4       0.2615
     75 H42        29.4085   14.3872   18.3884 H           1 FA4       0.2615
     76 H43        29.8444   14.6886   16.8616 H           1 FA4       0.2615
     77 H44        33.2181    5.8398   12.5003 H           1 FA4       0.2490
@<TRIPOS>BOND
     1     1     2  ar
     2     1     6  ar
     3     2     3  ar
     4     3     4  ar
     5     3     7   1
     6     4     5  ar
     7     4    27   1
     8     5     6  ar
     9     7     8   1
    10     8     9   1
    11     9    10   1
    12    10    11   1
    13    11    12   1
    14    12    13   1
    15    13    14   1
    16    14    15   1
    17    15    16   1
    18    16    17  am
    19    16    19   2
    20    17    18   1
    21    18    20   1
    22    18    21   1
    23    20    23   1
    24    21    22  am
    25    21    33   2
    26    22    32   1
    27    23    24   1
    28    24    25   1
    29    25    26   1
    30    27    28   1
    31    28    29  ar
    32    29    30  ar
    33    29    31  ar
    34     1    34   1
    35     2    35   1
    36     5    36   1
    37     6    37   1
    38     7    38   1
    39     7    39   1
    40     8    40   1
    41     8    41   1
    42     9    42   1
    43     9    43   1
    44    10    44   1
    45    10    45   1
    46    11    46   1
    47    11    47   1
    48    12    48   1
    49    12    49   1
    50    13    50   1
    51    13    51   1
    52    14    52   1
    53    14    53   1
    54    15    54   1
    55    15    55   1
    56    17    56   1
    57    18    57   1
    58    20    58   1
    59    20    59   1
    60    22    60   1
    61    23    61   1
    62    23    62   1
    63    24    63   1
    64    24    64   1
    65    25    65   1
    66    25    66   1
    67    26    67   1
    68    26    68   1
    69    26    69   1
    70    27    70   1
    71    27    71   1
    72    28    72   1
    73    30    73   1
    74    30    74   1
    75    31    75   1
    76    31    76   1
    77    32    77   1
@<TRIPOS>SUBSTRUCTURE
     1  FA4      1

