@<TRIPOS>MOLECULE
2d1o_ligand_060
    77    77
SMALL
GAST_HUCK
****
This file was generated by PARSER (from files_GN.cpp)

@<TRIPOS>ATOM
      1 C1         24.8209    5.5293   12.8715 C.ar        1 FA4      -0.0755
      2 C2         24.4316    4.7180   13.9475 C.ar        1 FA4      -0.0668
      3 C3         25.3758    3.9412   14.6667 C.ar        1 FA4      -0.0377
      4 C4         26.7626    4.0234   14.3109 C.ar        1 FA4      -0.0050
      5 C5         27.1310    4.9193   13.2735 C.ar        1 FA4      -0.0635
      6 C6         26.1722    5.6114   12.5211 C.ar        1 FA4      -0.0754
      7 C7         24.8651    3.0469   15.7540 C.3         1 FA4      -0.0215
      8 C8         24.6437    1.5650   15.3121 C.3         1 FA4      -0.0443
      9 C9         23.1569    1.1509   15.0883 C.3         1 FA4      -0.0514
     10 C10        22.3989    1.8662   13.9369 C.3         1 FA4      -0.0529
     11 C11        22.9903    1.6500   12.5102 C.3         1 FA4      -0.0530
     12 C12        21.9644    1.7764   11.3439 C.3         1 FA4      -0.0529
     13 C13        21.0435    3.0375   11.2903 C.3         1 FA4      -0.0510
     14 C14        19.8818    3.1663   12.3209 C.3         1 FA4      -0.0361
     15 C15        18.9498    1.9241   12.4870 C.3         1 FA4       0.0374
     16 C16        18.1363    1.6489   11.3139 C.2         1 FA4       0.1782
     17 N17        17.2586    2.5778   10.9320 N.am        1 FA4      -0.2657
     18 C18        16.3946    2.5561    9.7807 C.3         1 FA4       0.1325
     19 O19        18.2956    0.5976   10.7025 O.2         1 FA4      -0.3969
     20 C20        15.2229    1.5156    9.9748 C.3         1 FA4      -0.0123
     21 C21        17.2024    2.4562    8.5566 C.2         1 FA4       0.2244
     22 N22        18.2539    3.2496    8.4144 N.am        1 FA4      -0.1623
     23 C23        13.9405    2.1013   10.6522 C.3         1 FA4      -0.0440
     24 C24        13.9778    2.1378   12.2152 C.3         1 FA4      -0.0124
     25 C25        13.1634    3.3140   12.8225 C.3         1 FA4      -0.0354
     26 N26        14.0071    4.5140   12.9762 N.4         1 FA4       0.2185
     27 C27        27.8490    3.3471   15.0880 C.3         1 FA4       0.0939
     28 N28        28.9701    3.0163   14.3085 N.pl3       1 FA4      -0.2620
     29 C29        30.0483    3.6935   14.1286 C.cat       1 FA4       0.2900
     30 N30        30.9365    3.2067   13.3576 N.pl3       1 FA4      -0.2847
     31 N31        30.2904    4.8440   14.6517 N.pl3       1 FA4      -0.2847
     32 O32        19.0371    3.2095    7.3576 O.3         1 FA4      -0.2717
     33 O33        16.9088    1.6658    7.6601 O.2         1 FA4      -0.3944
     34 H1         24.1194    6.0655   12.3479 H           1 FA4       0.0541
     35 H2         23.4405    4.7184   14.2084 H           1 FA4       0.0537
     36 H3         28.1104    5.0726   13.0391 H           1 FA4       0.0538
     37 H4         26.4686    6.2092   11.7400 H           1 FA4       0.0541
     38 H5         23.9407    3.4501   16.1860 H           1 FA4       0.0411
     39 H6         25.5831    3.0823   16.5748 H           1 FA4       0.0411
     40 H7         25.0308    0.9110   16.1009 H           1 FA4       0.0286
     41 H8         25.2134    1.3330   14.4051 H           1 FA4       0.0286
     42 H9         22.6033    1.3136   16.0212 H           1 FA4       0.0267
     43 H10        23.1400    0.0774   14.8776 H           1 FA4       0.0267
     44 H11        22.3627    2.9367   14.1581 H           1 FA4       0.0265
     45 H12        21.3705    1.4808   13.9657 H           1 FA4       0.0265
     46 H13        23.4035    0.6300   12.4556 H           1 FA4       0.0265
     47 H14        23.8191    2.3521   12.3488 H           1 FA4       0.0265
     48 H15        21.3454    0.8693   11.3042 H           1 FA4       0.0265
     49 H16        22.5563    1.7949   10.4195 H           1 FA4       0.0265
     50 H17        20.5926    3.0609   10.2899 H           1 FA4       0.0267
     51 H18        21.6789    3.9314   11.3838 H           1 FA4       0.0267
     52 H19        19.2683    4.0218   12.0129 H           1 FA4       0.0290
     53 H20        20.2874    3.4245   13.3017 H           1 FA4       0.0290
     54 H21        18.2701    2.1100   13.3301 H           1 FA4       0.0502
     55 H22        19.5444    1.0413   12.7567 H           1 FA4       0.0502
     56 H23        17.2443    3.3936   11.4716 H           1 FA4       0.1882
     57 H24        15.9329    3.5577    9.7485 H           1 FA4       0.0799
     58 H25        15.5700    0.6368   10.5416 H           1 FA4       0.0312
     59 H26        14.8942    1.1485    8.9998 H           1 FA4       0.0312
     60 H27        18.4479    3.8924    9.1323 H           1 FA4       0.2217
     61 H28        13.0868    1.4744   10.3550 H           1 FA4       0.0269
     62 H29        13.7595    3.1086   10.2437 H           1 FA4       0.0269
     63 H30        15.0104    2.1863   12.5791 H           1 FA4       0.0317
     64 H31        13.5484    1.1932   12.5892 H           1 FA4       0.0317
     65 H32        12.7897    3.0361   13.8195 H           1 FA4       0.0813
     66 H33        12.2944    3.5580   12.1980 H           1 FA4       0.0813
     67 H34        13.4156    5.3105   13.2425 H           1 FA4       0.1994
     68 H35        14.5073    4.7276   12.0997 H           1 FA4       0.1994
     69 H36        14.6931    4.3331   13.7179 H           1 FA4       0.1994
     70 H37        27.4977    2.3946   15.4955 H           1 FA4       0.0839
     71 H38        28.0910    3.9912   15.9473 H           1 FA4       0.0839
     72 H39        28.9209    2.1946   13.8549 H           1 FA4       0.2664
     73 H40        31.7151    3.6928   13.1744 H           1 FA4       0.2615
     74 H41        30.8076    2.3694   12.9573 H           1 FA4       0.2615
     75 H42        29.6703    5.2472   15.2232 H           1 FA4       0.2615
     76 H43        31.0946    5.2775   14.4520 H           1 FA4       0.2615
     77 H44        19.4638    2.3244    7.4078 H           1 FA4       0.2490
@<TRIPOS>BOND
     1     1     2  ar
     2     1     6  ar
     3     2     3  ar
     4     3     4  ar
     5     3     7   1
     6     4     5  ar
     7     4    27   1
     8     5     6  ar
     9     7     8   1
    10     8     9   1
    11     9    10   1
    12    10    11   1
    13    11    12   1
    14    12    13   1
    15    13    14   1
    16    14    15   1
    17    15    16   1
    18    16    17  am
    19    16    19   2
    20    17    18   1
    21    18    20   1
    22    18    21   1
    23    20    23   1
    24    21    22  am
    25    21    33   2
    26    22    32   1
    27    23    24   1
    28    24    25   1
    29    25    26   1
    30    27    28   1
    31    28    29  ar
    32    29    30  ar
    33    29    31  ar
    34     1    34   1
    35     2    35   1
    36     5    36   1
    37     6    37   1
    38     7    38   1
    39     7    39   1
    40     8    40   1
    41     8    41   1
    42     9    42   1
    43     9    43   1
    44    10    44   1
    45    10    45   1
    46    11    46   1
    47    11    47   1
    48    12    48   1
    49    12    49   1
    50    13    50   1
    51    13    51   1
    52    14    52   1
    53    14    53   1
    54    15    54   1
    55    15    55   1
    56    17    56   1
    57    18    57   1
    58    20    58   1
    59    20    59   1
    60    22    60   1
    61    23    61   1
    62    23    62   1
    63    24    63   1
    64    24    64   1
    65    25    65   1
    66    25    66   1
    67    26    67   1
    68    26    68   1
    69    26    69   1
    70    27    70   1
    71    27    71   1
    72    28    72   1
    73    30    73   1
    74    30    74   1
    75    31    75   1
    76    31    76   1
    77    32    77   1
@<TRIPOS>SUBSTRUCTURE
     1  FA4      1

