@<TRIPOS>MOLECULE
2d1o_ligand_042
    77    77
SMALL
GAST_HUCK
****
This file was generated by PARSER (from files_GN.cpp)

@<TRIPOS>ATOM
      1 C1         30.5303   17.4916   15.6988 C.ar        1 FA4      -0.0755
      2 C2         29.7652   16.3521   15.3707 C.ar        1 FA4      -0.0668
      3 C3         30.3536   15.2293   14.7354 C.ar        1 FA4      -0.0377
      4 C4         31.7415   15.2795   14.3821 C.ar        1 FA4      -0.0050
      5 C5         32.4937   16.4285   14.7513 C.ar        1 FA4      -0.0635
      6 C6         31.8942   17.5241   15.3908 C.ar        1 FA4      -0.0754
      7 C7         29.4563   14.0724   14.4224 C.3         1 FA4      -0.0215
      8 C8         28.5507   13.5502   15.5773 C.3         1 FA4      -0.0443
      9 C9         29.2536   12.7691   16.7281 C.3         1 FA4      -0.0514
     10 C10        29.8303   13.6497   17.8748 C.3         1 FA4      -0.0529
     11 C11        30.1306   12.8759   19.1962 C.3         1 FA4      -0.0530
     12 C12        31.0723   11.6369   19.0902 C.3         1 FA4      -0.0529
     13 C13        32.4927   11.9574   18.5383 C.3         1 FA4      -0.0510
     14 C14        33.4993   10.7576   18.6017 C.3         1 FA4      -0.0361
     15 C15        33.8756   10.1105   17.2281 C.3         1 FA4       0.0374
     16 C16        32.8583    9.2540   16.6509 C.2         1 FA4       0.1782
     17 N17        33.1995    8.2071   15.8828 N.am        1 FA4      -0.2657
     18 C18        32.2925    7.2747   15.2623 C.3         1 FA4       0.1325
     19 O19        31.6723    9.5462   16.8432 O.2         1 FA4      -0.3969
     20 C20        32.4862    5.8097   15.8005 C.3         1 FA4      -0.0123
     21 C21        32.4576    7.3796   13.8144 C.2         1 FA4       0.2244
     22 N22        33.5451    6.9180   13.2180 N.am        1 FA4      -0.1623
     23 C23        31.1738    5.0302   16.0982 C.3         1 FA4      -0.0440
     24 C24        30.0703    5.0951   14.9953 C.3         1 FA4      -0.0124
     25 C25        29.8505    3.7959   14.1781 C.3         1 FA4      -0.0354
     26 N26        31.0866    3.2150   13.6417 N.4         1 FA4       0.2185
     27 C27        32.4375   14.2288   13.5699 C.3         1 FA4       0.0939
     28 N28        32.0237   14.1895   12.2263 N.pl3       1 FA4      -0.2620
     29 C29        32.1925   15.0812   11.3242 C.cat       1 FA4       0.2900
     30 N30        32.7648   16.2088   11.4910 N.pl3       1 FA4      -0.2847
     31 N31        31.7642   14.8118   10.1502 N.pl3       1 FA4      -0.2847
     32 O32        33.6249    6.8261   11.9203 O.3         1 FA4      -0.2717
     33 O33        31.5652    7.8714   13.1351 O.2         1 FA4      -0.3944
     34 H1         30.0830   18.2905   16.1574 H           1 FA4       0.0541
     35 H2         28.7632   16.3620   15.5838 H           1 FA4       0.0537
     36 H3         33.4861   16.4984   14.5194 H           1 FA4       0.0538
     37 H4         32.4424   18.3601   15.6044 H           1 FA4       0.0541
     38 H5         30.0135   13.2157   14.0428 H           1 FA4       0.0411
     39 H6         28.7971   14.3983   13.6113 H           1 FA4       0.0411
     40 H7         27.8263   12.8602   15.1255 H           1 FA4       0.0286
     41 H8         27.9729   14.3843   16.0041 H           1 FA4       0.0286
     42 H9         30.0537   12.1519   16.3052 H           1 FA4       0.0267
     43 H10        28.5024   12.0976   17.1636 H           1 FA4       0.0267
     44 H11        29.1025   14.4310   18.1263 H           1 FA4       0.0265
     45 H12        30.7436   14.1463   17.5345 H           1 FA4       0.0265
     46 H13        29.1740   12.5325   19.6123 H           1 FA4       0.0265
     47 H14        30.5603   13.5833   19.9165 H           1 FA4       0.0265
     48 H15        30.5941   10.8645   18.4682 H           1 FA4       0.0265
     49 H16        31.1896   11.2231   20.0996 H           1 FA4       0.0265
     50 H17        32.8989   12.7813   19.1379 H           1 FA4       0.0267
     51 H18        32.4137   12.3169   17.5112 H           1 FA4       0.0267
     52 H19        33.1373    9.9825   19.2869 H           1 FA4       0.0290
     53 H20        34.4285   11.1373   19.0413 H           1 FA4       0.0290
     54 H21        34.8004    9.5387   17.3774 H           1 FA4       0.0502
     55 H22        34.1126   10.9058   16.5109 H           1 FA4       0.0502
     56 H23        34.1512    8.0913   15.6987 H           1 FA4       0.1882
     57 H24        31.2650    7.5697   15.5105 H           1 FA4       0.0799
     58 H25        33.0429    5.8505   16.7416 H           1 FA4       0.0312
     59 H26        33.0902    5.2120   15.1170 H           1 FA4       0.0312
     60 H27        34.2550    6.5255   13.7539 H           1 FA4       0.2217
     61 H28        30.7607    5.4203   17.0355 H           1 FA4       0.0269
     62 H29        31.4299    3.9804   16.2905 H           1 FA4       0.0269
     63 H30        30.2646    5.9133   14.2998 H           1 FA4       0.0317
     64 H31        29.1163    5.3249   15.4897 H           1 FA4       0.0317
     65 H32        29.1839    4.0128   13.3429 H           1 FA4       0.0813
     66 H33        29.3663    3.0444   14.8097 H           1 FA4       0.0813
     67 H34        30.8403    2.4123   13.0510 H           1 FA4       0.1994
     68 H35        31.6749    2.8997   14.4133 H           1 FA4       0.1994
     69 H36        31.6159    3.8788   13.0770 H           1 FA4       0.1994
     70 H37        32.2563   13.2545   14.0287 H           1 FA4       0.0839
     71 H38        33.5250   14.3591   13.5803 H           1 FA4       0.0839
     72 H39        31.6163   13.3995   11.9366 H           1 FA4       0.2664
     73 H40        32.8480   16.8024   10.7745 H           1 FA4       0.2615
     74 H41        33.1085   16.4424   12.3265 H           1 FA4       0.2615
     75 H42        31.3530   13.9903    9.9759 H           1 FA4       0.2615
     76 H43        31.8784   15.4258    9.4531 H           1 FA4       0.2615
     77 H44        33.9853    5.9264   11.7613 H           1 FA4       0.2490
@<TRIPOS>BOND
     1     1     2  ar
     2     1     6  ar
     3     2     3  ar
     4     3     4  ar
     5     3     7   1
     6     4     5  ar
     7     4    27   1
     8     5     6  ar
     9     7     8   1
    10     8     9   1
    11     9    10   1
    12    10    11   1
    13    11    12   1
    14    12    13   1
    15    13    14   1
    16    14    15   1
    17    15    16   1
    18    16    17  am
    19    16    19   2
    20    17    18   1
    21    18    20   1
    22    18    21   1
    23    20    23   1
    24    21    22  am
    25    21    33   2
    26    22    32   1
    27    23    24   1
    28    24    25   1
    29    25    26   1
    30    27    28   1
    31    28    29  ar
    32    29    30  ar
    33    29    31  ar
    34     1    34   1
    35     2    35   1
    36     5    36   1
    37     6    37   1
    38     7    38   1
    39     7    39   1
    40     8    40   1
    41     8    41   1
    42     9    42   1
    43     9    43   1
    44    10    44   1
    45    10    45   1
    46    11    46   1
    47    11    47   1
    48    12    48   1
    49    12    49   1
    50    13    50   1
    51    13    51   1
    52    14    52   1
    53    14    53   1
    54    15    54   1
    55    15    55   1
    56    17    56   1
    57    18    57   1
    58    20    58   1
    59    20    59   1
    60    22    60   1
    61    23    61   1
    62    23    62   1
    63    24    63   1
    64    24    64   1
    65    25    65   1
    66    25    66   1
    67    26    67   1
    68    26    68   1
    69    26    69   1
    70    27    70   1
    71    27    71   1
    72    28    72   1
    73    30    73   1
    74    30    74   1
    75    31    75   1
    76    31    76   1
    77    32    77   1
@<TRIPOS>SUBSTRUCTURE
     1  FA4      1

