@<TRIPOS>MOLECULE
2d1o_ligand_025
    77    77
SMALL
GAST_HUCK
****
This file was generated by PARSER (from files_GN.cpp)

@<TRIPOS>ATOM
      1 C1         29.7827   17.0279   17.2588 C.ar        1 FA4      -0.0755
      2 C2         30.2486   15.7225   17.0387 C.ar        1 FA4      -0.0668
      3 C3         29.5279   14.7972   16.2358 C.ar        1 FA4      -0.0377
      4 C4         28.3133   15.2386   15.6160 C.ar        1 FA4      -0.0050
      5 C5         27.8741   16.5689   15.8353 C.ar        1 FA4      -0.0635
      6 C6         28.5913   17.4518   16.6564 C.ar        1 FA4      -0.0754
      7 C7         30.1498   13.4415   16.0542 C.3         1 FA4      -0.0215
      8 C8         30.3837   12.6288   17.3694 C.3         1 FA4      -0.0443
      9 C9         29.4119   11.4409   17.6150 C.3         1 FA4      -0.0514
     10 C10        29.7767   10.1567   16.8088 C.3         1 FA4      -0.0529
     11 C11        29.0892    8.8774   17.3703 C.3         1 FA4      -0.0530
     12 C12        29.0884    7.6495   16.4132 C.3         1 FA4      -0.0529
     13 C13        30.4340    6.9125   16.1459 C.3         1 FA4      -0.0510
     14 C14        31.3733    6.7270   17.3777 C.3         1 FA4      -0.0361
     15 C15        32.3335    7.9167   17.6583 C.3         1 FA4       0.0374
     16 C16        33.3938    8.0368   16.6698 C.2         1 FA4       0.1782
     17 N17        33.2724    8.8497   15.6226 N.am        1 FA4      -0.2657
     18 C18        34.2215    9.0018   14.5465 C.3         1 FA4       0.1325
     19 O19        34.3461    7.2737   16.7757 O.2         1 FA4      -0.3969
     20 C20        34.6164   10.5062   14.3891 C.3         1 FA4      -0.0123
     21 C21        33.6475    8.4125   13.3340 C.2         1 FA4       0.2244
     22 N22        34.1735    7.3338   12.7804 N.am        1 FA4      -0.1623
     23 C23        36.1367   10.7731   14.1534 C.3         1 FA4      -0.0440
     24 C24        37.0848   10.3396   15.3234 C.3         1 FA4      -0.0124
     25 C25        37.9838    9.1123   15.0283 C.3         1 FA4      -0.0354
     26 N26        39.1901    9.1346   15.8643 N.4         1 FA4       0.2185
     27 C27        27.4875   14.3792   14.7144 C.3         1 FA4       0.0939
     28 N28        26.8907   13.3160   15.3998 N.pl3       1 FA4      -0.2620
     29 C29        25.7786   13.3229   16.0462 C.cat       1 FA4       0.2900
     30 N30        25.4099   12.2374   16.6067 N.pl3       1 FA4      -0.2847
     31 N31        25.0055   14.3369   16.1664 N.pl3       1 FA4      -0.2847
     32 O32        33.6306    6.7531   11.7405 O.3         1 FA4      -0.2717
     33 O33        32.6191    8.8793   12.8557 O.2         1 FA4      -0.3944
     34 H1         30.3137   17.6673   17.8549 H           1 FA4       0.0541
     35 H2         31.1394   15.4547   17.4693 H           1 FA4       0.0537
     36 H3         27.0140   16.9122   15.4030 H           1 FA4       0.0538
     37 H4         28.2528   18.4016   16.8094 H           1 FA4       0.0541
     38 H5         31.1236   13.6029   15.5817 H           1 FA4       0.0411
     39 H6         29.5860   12.8260   15.3558 H           1 FA4       0.0411
     40 H7         30.3224   13.2921   18.2364 H           1 FA4       0.0286
     41 H8         31.4080   12.2383   17.3641 H           1 FA4       0.0286
     42 H9         28.3885   11.7502   17.3857 H           1 FA4       0.0267
     43 H10        29.4533   11.2152   18.6854 H           1 FA4       0.0267
     44 H11        30.8687   10.0143   16.8556 H           1 FA4       0.0265
     45 H12        29.5138   10.2887   15.7562 H           1 FA4       0.0265
     46 H13        28.0427    9.1191   17.5923 H           1 FA4       0.0265
     47 H14        29.5569    8.5966   18.3192 H           1 FA4       0.0265
     48 H15        28.6914    7.9608   15.4429 H           1 FA4       0.0265
     49 H16        28.3854    6.9187   16.8231 H           1 FA4       0.0265
     50 H17        30.9550    7.4103   15.3206 H           1 FA4       0.0267
     51 H18        30.1694    5.9140   15.7758 H           1 FA4       0.0267
     52 H19        31.9731    5.8198   17.2340 H           1 FA4       0.0290
     53 H20        30.7637    6.5465   18.2676 H           1 FA4       0.0290
     54 H21        32.7815    7.7651   18.6410 H           1 FA4       0.0502
     55 H22        31.7620    8.8563   17.7238 H           1 FA4       0.0502
     56 H23        32.4540    9.3697   15.5526 H           1 FA4       0.1882
     57 H24        35.1372    8.4611   14.7994 H           1 FA4       0.0799
     58 H25        34.3085   11.0610   15.2793 H           1 FA4       0.0312
     59 H26        34.0549   10.9435   13.5578 H           1 FA4       0.0312
     60 H27        34.9554    6.9283   13.1905 H           1 FA4       0.2217
     61 H28        36.2572   11.8516   14.0155 H           1 FA4       0.0269
     62 H29        36.4489   10.3056   13.2167 H           1 FA4       0.0269
     63 H30        36.4993   10.1363   16.2257 H           1 FA4       0.0317
     64 H31        37.7494   11.1784   15.5626 H           1 FA4       0.0317
     65 H32        38.2863    9.1167   13.9780 H           1 FA4       0.0813
     66 H33        37.4494    8.1852   15.2325 H           1 FA4       0.0813
     67 H34        39.7649    8.3236   15.6398 H           1 FA4       0.1994
     68 H35        38.9244    9.0970   16.8511 H           1 FA4       0.1994
     69 H36        39.7240    9.9890   15.6879 H           1 FA4       0.1994
     70 H37        28.1296   13.9851   13.9252 H           1 FA4       0.0839
     71 H38        26.7136   14.9482   14.1879 H           1 FA4       0.0839
     72 H39        27.3338   12.4943   15.3653 H           1 FA4       0.2664
     73 H40        24.6035   12.2025   17.0783 H           1 FA4       0.2615
     74 H41        25.9505   11.4785   16.5463 H           1 FA4       0.2615
     75 H42        25.2304   15.1509   15.7715 H           1 FA4       0.2615
     76 H43        24.2116   14.2610   16.6527 H           1 FA4       0.2615
     77 H44        33.9474    5.8245   11.7711 H           1 FA4       0.2490
@<TRIPOS>BOND
     1     1     2  ar
     2     1     6  ar
     3     2     3  ar
     4     3     4  ar
     5     3     7   1
     6     4     5  ar
     7     4    27   1
     8     5     6  ar
     9     7     8   1
    10     8     9   1
    11     9    10   1
    12    10    11   1
    13    11    12   1
    14    12    13   1
    15    13    14   1
    16    14    15   1
    17    15    16   1
    18    16    17  am
    19    16    19   2
    20    17    18   1
    21    18    20   1
    22    18    21   1
    23    20    23   1
    24    21    22  am
    25    21    33   2
    26    22    32   1
    27    23    24   1
    28    24    25   1
    29    25    26   1
    30    27    28   1
    31    28    29  ar
    32    29    30  ar
    33    29    31  ar
    34     1    34   1
    35     2    35   1
    36     5    36   1
    37     6    37   1
    38     7    38   1
    39     7    39   1
    40     8    40   1
    41     8    41   1
    42     9    42   1
    43     9    43   1
    44    10    44   1
    45    10    45   1
    46    11    46   1
    47    11    47   1
    48    12    48   1
    49    12    49   1
    50    13    50   1
    51    13    51   1
    52    14    52   1
    53    14    53   1
    54    15    54   1
    55    15    55   1
    56    17    56   1
    57    18    57   1
    58    20    58   1
    59    20    59   1
    60    22    60   1
    61    23    61   1
    62    23    62   1
    63    24    63   1
    64    24    64   1
    65    25    65   1
    66    25    66   1
    67    26    67   1
    68    26    68   1
    69    26    69   1
    70    27    70   1
    71    27    71   1
    72    28    72   1
    73    30    73   1
    74    30    74   1
    75    31    75   1
    76    31    76   1
    77    32    77   1
@<TRIPOS>SUBSTRUCTURE
     1  FA4      1

