@<TRIPOS>MOLECULE
2d1o_ligand_031
    77    77
SMALL
GAST_HUCK
****
This file was generated by PARSER (from files_GN.cpp)

@<TRIPOS>ATOM
      1 C1         20.8731    2.5770   10.7695 C.ar        1 FA4      -0.0755
      2 C2         22.0490    3.1891   11.2336 C.ar        1 FA4      -0.0668
      3 C3         22.0356    4.4955   11.7833 C.ar        1 FA4      -0.0377
      4 C4         20.7959    5.2114   11.8425 C.ar        1 FA4      -0.0050
      5 C5         19.6233    4.5638   11.3776 C.ar        1 FA4      -0.0635
      6 C6         19.6556    3.2633   10.8584 C.ar        1 FA4      -0.0754
      7 C7         23.2898    5.0941   12.3370 C.3         1 FA4      -0.0215
      8 C8         24.5974    4.2581   12.4832 C.3         1 FA4      -0.0443
      9 C9         25.7607    5.1617   12.9706 C.3         1 FA4      -0.0514
     10 C10        27.0425    4.3746   13.3669 C.3         1 FA4      -0.0529
     11 C11        28.1430    5.2804   13.9981 C.3         1 FA4      -0.0530
     12 C12        27.8870    5.6125   15.5027 C.3         1 FA4      -0.0529
     13 C13        28.6600    6.8535   16.0642 C.3         1 FA4      -0.0510
     14 C14        29.7544    6.5329   17.1209 C.3         1 FA4      -0.0361
     15 C15        31.0249    5.8329   16.5536 C.3         1 FA4       0.0374
     16 C16        32.1615    6.7054   16.3024 C.2         1 FA4       0.1782
     17 N17        32.0440    7.7536   15.5002 N.am        1 FA4      -0.2657
     18 C18        33.1014    8.5493   14.9400 C.3         1 FA4       0.1325
     19 O19        33.2604    6.3701   16.7389 O.2         1 FA4      -0.3969
     20 C20        32.8817   10.0534   15.2799 C.3         1 FA4      -0.0123
     21 C21        33.0959    8.2281   13.5278 C.2         1 FA4       0.2244
     22 N22        33.8490    7.2498   13.0620 N.am        1 FA4      -0.1623
     23 C23        33.8798   11.0567   14.6307 C.3         1 FA4      -0.0440
     24 C24        35.3747   10.6375   14.5863 C.3         1 FA4      -0.0124
     25 C25        36.0439   10.4778   15.9714 C.3         1 FA4      -0.0354
     26 N26        37.4514   10.0809   15.8225 N.4         1 FA4       0.2185
     27 C27        20.6606    6.6665   12.2073 C.3         1 FA4       0.0939
     28 N28        21.5451    7.1899   13.1549 N.pl3       1 FA4      -0.2620
     29 C29        21.4760    7.1522   14.4343 C.cat       1 FA4       0.2900
     30 N30        22.4193    7.6977   15.0966 N.pl3       1 FA4      -0.2847
     31 N31        20.5153    6.6218   15.1049 N.pl3       1 FA4      -0.2847
     32 O32        33.6978    6.8064   11.8511 O.3         1 FA4      -0.2717
     33 O33        32.2566    8.7482   12.7954 O.2         1 FA4      -0.3944
     34 H1         20.9009    1.6341   10.3688 H           1 FA4       0.0541
     35 H2         22.9127    2.6502   11.1458 H           1 FA4       0.0537
     36 H3         18.7243    5.0465   11.3881 H           1 FA4       0.0538
     37 H4         18.7962    2.8232   10.5221 H           1 FA4       0.0541
     38 H5         23.0454    5.4167   13.3522 H           1 FA4       0.0411
     39 H6         23.5315    5.9746   11.7398 H           1 FA4       0.0411
     40 H7         24.8713    3.8112   11.5223 H           1 FA4       0.0286
     41 H8         24.4338    3.4549   13.2083 H           1 FA4       0.0286
     42 H9         25.4221    5.7372   13.8370 H           1 FA4       0.0267
     43 H10        26.0185    5.8743   12.1776 H           1 FA4       0.0267
     44 H11        27.4450    3.9066   12.4662 H           1 FA4       0.0265
     45 H12        26.7870    3.5794   14.0731 H           1 FA4       0.0265
     46 H13        28.2159    6.2033   13.4135 H           1 FA4       0.0265
     47 H14        29.1068    4.7661   13.9166 H           1 FA4       0.0265
     48 H15        28.1144    4.7191   16.0969 H           1 FA4       0.0265
     49 H16        26.8230    5.8045   15.6448 H           1 FA4       0.0265
     50 H17        27.9371    7.5108   16.5549 H           1 FA4       0.0267
     51 H18        29.0942    7.4324   15.2455 H           1 FA4       0.0267
     52 H19        29.3017    5.8921   17.8867 H           1 FA4       0.0290
     53 H20        30.0377    7.4608   17.6264 H           1 FA4       0.0290
     54 H21        30.7891    5.3182   15.6226 H           1 FA4       0.0502
     55 H22        31.3192    5.0571   17.2679 H           1 FA4       0.0502
     56 H23        31.1502    7.9578   15.1853 H           1 FA4       0.1882
     57 H24        34.0710    8.2603   15.3641 H           1 FA4       0.0799
     58 H25        32.9237   10.1725   16.3660 H           1 FA4       0.0312
     59 H26        31.8708   10.3440   14.9751 H           1 FA4       0.0312
     60 H27        34.4481    6.7855   13.6723 H           1 FA4       0.2217
     61 H28        33.8054   12.0093   15.1632 H           1 FA4       0.0269
     62 H29        33.5531   11.2414   13.6029 H           1 FA4       0.0269
     63 H30        35.9215   11.4053   14.0293 H           1 FA4       0.0317
     64 H31        35.4748    9.7015   14.0290 H           1 FA4       0.0317
     65 H32        35.5371    9.7094   16.5567 H           1 FA4       0.0813
     66 H33        36.0035   11.4238   16.5190 H           1 FA4       0.0813
     67 H34        37.8738    9.9686   16.7460 H           1 FA4       0.1994
     68 H35        37.9578   10.8000   15.3008 H           1 FA4       0.1994
     69 H36        37.5041    9.1913   15.3161 H           1 FA4       0.1994
     70 H37        19.6409    6.9035   12.5331 H           1 FA4       0.0839
     71 H38        20.8150    7.2321   11.2863 H           1 FA4       0.0839
     72 H39        22.2840    7.6569   12.8048 H           1 FA4       0.2664
     73 H40        22.4054    7.6844   16.0317 H           1 FA4       0.2615
     74 H41        23.1330    8.1016   14.6451 H           1 FA4       0.2615
     75 H42        19.8036    6.2116   14.6646 H           1 FA4       0.2615
     76 H43        20.5489    6.6303   16.0401 H           1 FA4       0.2615
     77 H44        34.0591    5.8947   11.8618 H           1 FA4       0.2490
@<TRIPOS>BOND
     1     1     2  ar
     2     1     6  ar
     3     2     3  ar
     4     3     4  ar
     5     3     7   1
     6     4     5  ar
     7     4    27   1
     8     5     6  ar
     9     7     8   1
    10     8     9   1
    11     9    10   1
    12    10    11   1
    13    11    12   1
    14    12    13   1
    15    13    14   1
    16    14    15   1
    17    15    16   1
    18    16    17  am
    19    16    19   2
    20    17    18   1
    21    18    20   1
    22    18    21   1
    23    20    23   1
    24    21    22  am
    25    21    33   2
    26    22    32   1
    27    23    24   1
    28    24    25   1
    29    25    26   1
    30    27    28   1
    31    28    29  ar
    32    29    30  ar
    33    29    31  ar
    34     1    34   1
    35     2    35   1
    36     5    36   1
    37     6    37   1
    38     7    38   1
    39     7    39   1
    40     8    40   1
    41     8    41   1
    42     9    42   1
    43     9    43   1
    44    10    44   1
    45    10    45   1
    46    11    46   1
    47    11    47   1
    48    12    48   1
    49    12    49   1
    50    13    50   1
    51    13    51   1
    52    14    52   1
    53    14    53   1
    54    15    54   1
    55    15    55   1
    56    17    56   1
    57    18    57   1
    58    20    58   1
    59    20    59   1
    60    22    60   1
    61    23    61   1
    62    23    62   1
    63    24    63   1
    64    24    64   1
    65    25    65   1
    66    25    66   1
    67    26    67   1
    68    26    68   1
    69    26    69   1
    70    27    70   1
    71    27    71   1
    72    28    72   1
    73    30    73   1
    74    30    74   1
    75    31    75   1
    76    31    76   1
    77    32    77   1
@<TRIPOS>SUBSTRUCTURE
     1  FA4      1

