@<TRIPOS>MOLECULE
2d1o_ligand_065
    77    77
SMALL
GAST_HUCK
****
This file was generated by PARSER (from files_GN.cpp)

@<TRIPOS>ATOM
      1 C1         22.3559    3.9163   14.8509 C.ar        1 FA4      -0.0755
      2 C2         23.3323    4.5533   14.0704 C.ar        1 FA4      -0.0668
      3 C3         24.4509    3.8427   13.5626 C.ar        1 FA4      -0.0377
      4 C4         24.5766    2.4467   13.8563 C.ar        1 FA4      -0.0050
      5 C5         23.5777    1.8220   14.6463 C.ar        1 FA4      -0.0635
      6 C6         22.4899    2.5529   15.1546 C.ar        1 FA4      -0.0754
      7 C7         25.5275    4.6566   12.9054 C.3         1 FA4      -0.0215
      8 C8         26.5138    5.1845   13.9943 C.3         1 FA4      -0.0443
      9 C9         27.8221    5.8137   13.4293 C.3         1 FA4      -0.0514
     10 C10        28.7462    6.4808   14.4977 C.3         1 FA4      -0.0529
     11 C11        28.5356    6.0393   15.9775 C.3         1 FA4      -0.0530
     12 C12        28.9333    7.1048   17.0424 C.3         1 FA4      -0.0529
     13 C13        30.3063    7.8144   16.8410 C.3         1 FA4      -0.0510
     14 C14        31.5419    6.9779   17.3093 C.3         1 FA4      -0.0361
     15 C15        32.3548    6.3254   16.1514 C.3         1 FA4       0.0374
     16 C16        33.5182    7.1013   15.7580 C.2         1 FA4       0.1782
     17 N17        33.4949    7.8591   14.6740 N.am        1 FA4      -0.2657
     18 C18        34.6000    8.5991   14.1118 C.3         1 FA4       0.1325
     19 O19        34.5178    7.0269   16.4632 O.2         1 FA4      -0.3969
     20 C20        34.4672   10.1196   14.4279 C.3         1 FA4      -0.0123
     21 C21        34.7267    8.3181   12.6812 C.2         1 FA4       0.2244
     22 N22        35.9181    8.1440   12.1292 N.am        1 FA4      -0.1623
     23 C23        33.1283   10.7770   13.9915 C.3         1 FA4      -0.0440
     24 C24        32.6172   11.8703   14.9848 C.3         1 FA4      -0.0124
     25 C25        31.0776   12.0899   14.9533 C.3         1 FA4      -0.0354
     26 N26        30.3581   11.0624   15.7261 N.4         1 FA4       0.2185
     27 C27        25.6762    1.5953   13.3053 C.3         1 FA4       0.0939
     28 N28        26.9573    2.1361   13.4484 N.pl3       1 FA4      -0.2620
     29 C29        27.7314    2.0927   14.4700 C.cat       1 FA4       0.2900
     30 N30        27.4265    1.5523   15.5871 N.pl3       1 FA4      -0.2847
     31 N31        28.8923    2.6163   14.3466 N.pl3       1 FA4      -0.2847
     32 O32        36.1015    7.8278   10.8740 O.3         1 FA4      -0.2717
     33 O33        33.7132    8.2325   11.9923 O.2         1 FA4      -0.3944
     34 H1         21.5533    4.4420   15.2119 H           1 FA4       0.0541
     35 H2         23.2199    5.5566   13.8875 H           1 FA4       0.0537
     36 H3         23.6401    0.8262   14.8735 H           1 FA4       0.0538
     37 H4         21.7856    2.0833   15.7286 H           1 FA4       0.0541
     38 H5         25.0750    5.5022   12.3656 H           1 FA4       0.0411
     39 H6         26.0595    4.0614   12.1538 H           1 FA4       0.0411
     40 H7         26.8031    4.3474   14.6468 H           1 FA4       0.0286
     41 H8         25.9802    5.9288   14.6029 H           1 FA4       0.0286
     42 H9         27.5478    6.5869   12.7008 H           1 FA4       0.0267
     43 H10        28.3858    5.0322   12.8925 H           1 FA4       0.0267
     44 H11        28.5907    7.5586   14.4267 H           1 FA4       0.0265
     45 H12        29.7872    6.2859   14.2086 H           1 FA4       0.0265
     46 H13        29.0825    5.1024   16.1499 H           1 FA4       0.0265
     47 H14        27.4734    5.8370   16.1323 H           1 FA4       0.0265
     48 H15        28.9475    6.6063   18.0157 H           1 FA4       0.0265
     49 H16        28.1423    7.8637   17.0815 H           1 FA4       0.0265
     50 H17        30.2713    8.7376   17.4288 H           1 FA4       0.0267
     51 H18        30.4019    8.1125   15.7887 H           1 FA4       0.0267
     52 H19        31.2086    6.1835   17.9854 H           1 FA4       0.0290
     53 H20        32.1950    7.6239   17.9007 H           1 FA4       0.0290
     54 H21        31.6864    6.1524   15.2967 H           1 FA4       0.0502
     55 H22        32.6975    5.3390   16.4839 H           1 FA4       0.0502
     56 H23        32.6480    7.9186   14.2093 H           1 FA4       0.1882
     57 H24        35.5311    8.2741   14.5996 H           1 FA4       0.0799
     58 H25        35.2916   10.6631   13.9517 H           1 FA4       0.0312
     59 H26        34.5888   10.2335   15.5072 H           1 FA4       0.0312
     60 H27        36.6977    8.2225   12.6971 H           1 FA4       0.2217
     61 H28        32.3770    9.9955   13.8742 H           1 FA4       0.0269
     62 H29        33.2633   11.2351   13.0091 H           1 FA4       0.0269
     63 H30        33.1018   12.8246   14.7458 H           1 FA4       0.0317
     64 H31        32.8931   11.6233   16.0162 H           1 FA4       0.0317
     65 H32        30.7240   12.0693   13.9194 H           1 FA4       0.0813
     66 H33        30.8430   13.0654   15.3873 H           1 FA4       0.0813
     67 H34        29.3475   11.2365   15.6804 H           1 FA4       0.1994
     68 H35        30.6697   11.0835   16.7026 H           1 FA4       0.1994
     69 H36        30.5541   10.1403   15.3252 H           1 FA4       0.1994
     70 H37        25.4882    1.4745   12.2345 H           1 FA4       0.0839
     71 H38        25.6689    0.5850   13.7330 H           1 FA4       0.0839
     72 H39        27.3253    2.5211   12.6769 H           1 FA4       0.2664
     73 H40        28.0442    1.5495   16.2860 H           1 FA4       0.2615
     74 H41        26.5879    1.1714   15.7193 H           1 FA4       0.2615
     75 H42        29.1428    2.9986   13.5290 H           1 FA4       0.2615
     76 H43        29.4873    2.6102   15.0690 H           1 FA4       0.2615
     77 H44        35.5749    8.4712   10.3460 H           1 FA4       0.2490
@<TRIPOS>BOND
     1     1     2  ar
     2     1     6  ar
     3     2     3  ar
     4     3     4  ar
     5     3     7   1
     6     4     5  ar
     7     4    27   1
     8     5     6  ar
     9     7     8   1
    10     8     9   1
    11     9    10   1
    12    10    11   1
    13    11    12   1
    14    12    13   1
    15    13    14   1
    16    14    15   1
    17    15    16   1
    18    16    17  am
    19    16    19   2
    20    17    18   1
    21    18    20   1
    22    18    21   1
    23    20    23   1
    24    21    22  am
    25    21    33   2
    26    22    32   1
    27    23    24   1
    28    24    25   1
    29    25    26   1
    30    27    28   1
    31    28    29  ar
    32    29    30  ar
    33    29    31  ar
    34     1    34   1
    35     2    35   1
    36     5    36   1
    37     6    37   1
    38     7    38   1
    39     7    39   1
    40     8    40   1
    41     8    41   1
    42     9    42   1
    43     9    43   1
    44    10    44   1
    45    10    45   1
    46    11    46   1
    47    11    47   1
    48    12    48   1
    49    12    49   1
    50    13    50   1
    51    13    51   1
    52    14    52   1
    53    14    53   1
    54    15    54   1
    55    15    55   1
    56    17    56   1
    57    18    57   1
    58    20    58   1
    59    20    59   1
    60    22    60   1
    61    23    61   1
    62    23    62   1
    63    24    63   1
    64    24    64   1
    65    25    65   1
    66    25    66   1
    67    26    67   1
    68    26    68   1
    69    26    69   1
    70    27    70   1
    71    27    71   1
    72    28    72   1
    73    30    73   1
    74    30    74   1
    75    31    75   1
    76    31    76   1
    77    32    77   1
@<TRIPOS>SUBSTRUCTURE
     1  FA4      1

