@<TRIPOS>MOLECULE
2d1o_ligand_048
    77    77
SMALL
GAST_HUCK
****
This file was generated by PARSER (from files_GN.cpp)

@<TRIPOS>ATOM
      1 C1         24.8663    5.5157   12.8015 C.ar        1 FA4      -0.0755
      2 C2         24.4635    4.7128   13.8797 C.ar        1 FA4      -0.0668
      3 C3         25.3969    3.9569   14.6350 C.ar        1 FA4      -0.0377
      4 C4         26.7932    4.0862   14.3392 C.ar        1 FA4      -0.0050
      5 C5         27.1741    4.9731   13.2990 C.ar        1 FA4      -0.0635
      6 C6         26.2271    5.6535   12.5169 C.ar        1 FA4      -0.0754
      7 C7         24.8363    3.0539   15.6895 C.3         1 FA4      -0.0215
      8 C8         24.6015    1.5825   15.2219 C.3         1 FA4      -0.0443
      9 C9         23.1229    1.1471   14.9883 C.3         1 FA4      -0.0514
     10 C10        22.3224    1.8074   13.8331 C.3         1 FA4      -0.0529
     11 C11        23.0008    1.6920   12.4374 C.3         1 FA4      -0.0530
     12 C12        22.0972    1.9477   11.1963 C.3         1 FA4      -0.0529
     13 C13        21.7572    3.4198   10.8118 C.3         1 FA4      -0.0510
     14 C14        20.6924    4.1736   11.6567 C.3         1 FA4      -0.0361
     15 C15        19.2472    3.6019   11.6204 C.3         1 FA4       0.0374
     16 C16        18.4405    4.0544   12.7446 C.2         1 FA4       0.1782
     17 N17        18.0177    5.3152   12.8145 N.am        1 FA4      -0.2657
     18 C18        17.1881    5.9518   13.8091 C.3         1 FA4       0.1325
     19 O19        18.1742    3.2401   13.6253 O.2         1 FA4      -0.3969
     20 C20        17.9729    6.7692   14.8955 C.3         1 FA4      -0.0123
     21 C21        16.1133    5.1002   14.3280 C.2         1 FA4       0.2244
     22 N22        15.0031    4.9345   13.6207 N.am        1 FA4      -0.1623
     23 C23        19.3140    6.1929   15.4317 C.3         1 FA4      -0.0440
     24 C24        20.5554    6.4815   14.5355 C.3         1 FA4      -0.0124
     25 C25        21.1153    7.9265   14.5495 C.3         1 FA4      -0.0354
     26 N26        21.9234    8.1963   15.7394 N.4         1 FA4       0.2185
     27 C27        27.8735    3.4064   15.1301 C.3         1 FA4       0.0939
     28 N28        29.0119    3.0328   14.3904 N.pl3       1 FA4      -0.2620
     29 C29        30.0890    3.6962   14.1889 C.cat       1 FA4       0.2900
     30 N30        30.9783    3.1805   13.4261 N.pl3       1 FA4      -0.2847
     31 N31        30.3285    4.8601   14.6636 N.pl3       1 FA4      -0.2847
     32 O32        14.0192    4.1390   13.9585 O.3         1 FA4      -0.2717
     33 O33        16.2623    4.4829   15.3759 O.2         1 FA4      -0.3944
     34 H1         24.1651    6.0158   12.2457 H           1 FA4       0.0541
     35 H2         23.4676    4.6813   14.1000 H           1 FA4       0.0537
     36 H3         28.1565    5.1401   13.0781 H           1 FA4       0.0538
     37 H4         26.5241    6.2691   11.7583 H           1 FA4       0.0541
     38 H5         23.8952    3.4553   16.0819 H           1 FA4       0.0411
     39 H6         25.5046    3.0662   16.5523 H           1 FA4       0.0411
     40 H7         24.9865    0.9212   16.0064 H           1 FA4       0.0286
     41 H8         25.1933    1.3595   14.3302 H           1 FA4       0.0286
     42 H9         22.5664    1.3157   15.9157 H           1 FA4       0.0267
     43 H10        23.1127    0.0736   14.8100 H           1 FA4       0.0267
     44 H11        22.1401    2.8428   14.0909 H           1 FA4       0.0265
     45 H12        21.3480    1.3155   13.7797 H           1 FA4       0.0265
     46 H13        23.3712    0.6694   12.3483 H           1 FA4       0.0265
     47 H14        23.8706    2.3496   12.3923 H           1 FA4       0.0265
     48 H15        21.1844    1.3615   11.2889 H           1 FA4       0.0265
     49 H16        22.6325    1.5293   10.3363 H           1 FA4       0.0265
     50 H17        21.4245    3.4346    9.7688 H           1 FA4       0.0267
     51 H18        22.6834    3.9965   10.8560 H           1 FA4       0.0267
     52 H19        20.6563    5.2031   11.2920 H           1 FA4       0.0290
     53 H20        21.0450    4.2110   12.6826 H           1 FA4       0.0290
     54 H21        19.2886    2.5123   11.6174 H           1 FA4       0.0502
     55 H22        18.7592    3.8986   10.6873 H           1 FA4       0.0502
     56 H23        18.3107    5.8933   12.0907 H           1 FA4       0.1882
     57 H24        16.6700    6.7249   13.2358 H           1 FA4       0.0799
     58 H25        17.3114    6.9239   15.7547 H           1 FA4       0.0312
     59 H26        18.1697    7.7684   14.4961 H           1 FA4       0.0312
     60 H27        14.9069    5.4603   12.8102 H           1 FA4       0.2217
     61 H28        19.2097    5.1109   15.5516 H           1 FA4       0.0269
     62 H29        19.5079    6.6028   16.4273 H           1 FA4       0.0269
     63 H30        20.2990    6.2557   13.5060 H           1 FA4       0.0317
     64 H31        21.3601    5.8024   14.8257 H           1 FA4       0.0317
     65 H32        20.3120    8.6634   14.4894 H           1 FA4       0.0813
     66 H33        21.7656    8.0677   13.6804 H           1 FA4       0.0813
     67 H34        22.2315    9.1704   15.7211 H           1 FA4       0.1994
     68 H35        22.7447    7.5810   15.7433 H           1 FA4       0.1994
     69 H36        21.3706    8.0311   16.5840 H           1 FA4       0.1994
     70 H37        27.5054    2.4729   15.5477 H           1 FA4       0.0839
     71 H38        28.1397    4.0381   15.9822 H           1 FA4       0.0839
     72 H39        28.9662    2.1974   13.9692 H           1 FA4       0.2664
     73 H40        31.7719    3.6433   13.2368 H           1 FA4       0.2615
     74 H41        30.8348    2.3408   13.0395 H           1 FA4       0.2615
     75 H42        29.6960    5.2857   15.2058 H           1 FA4       0.2615
     76 H43        31.1257    5.3037   14.4536 H           1 FA4       0.2615
     77 H44        14.4405    3.3198   14.3004 H           1 FA4       0.2490
@<TRIPOS>BOND
     1     1     2  ar
     2     1     6  ar
     3     2     3  ar
     4     3     4  ar
     5     3     7   1
     6     4     5  ar
     7     4    27   1
     8     5     6  ar
     9     7     8   1
    10     8     9   1
    11     9    10   1
    12    10    11   1
    13    11    12   1
    14    12    13   1
    15    13    14   1
    16    14    15   1
    17    15    16   1
    18    16    17  am
    19    16    19   2
    20    17    18   1
    21    18    20   1
    22    18    21   1
    23    20    23   1
    24    21    22  am
    25    21    33   2
    26    22    32   1
    27    23    24   1
    28    24    25   1
    29    25    26   1
    30    27    28   1
    31    28    29  ar
    32    29    30  ar
    33    29    31  ar
    34     1    34   1
    35     2    35   1
    36     5    36   1
    37     6    37   1
    38     7    38   1
    39     7    39   1
    40     8    40   1
    41     8    41   1
    42     9    42   1
    43     9    43   1
    44    10    44   1
    45    10    45   1
    46    11    46   1
    47    11    47   1
    48    12    48   1
    49    12    49   1
    50    13    50   1
    51    13    51   1
    52    14    52   1
    53    14    53   1
    54    15    54   1
    55    15    55   1
    56    17    56   1
    57    18    57   1
    58    20    58   1
    59    20    59   1
    60    22    60   1
    61    23    61   1
    62    23    62   1
    63    24    63   1
    64    24    64   1
    65    25    65   1
    66    25    66   1
    67    26    67   1
    68    26    68   1
    69    26    69   1
    70    27    70   1
    71    27    71   1
    72    28    72   1
    73    30    73   1
    74    30    74   1
    75    31    75   1
    76    31    76   1
    77    32    77   1
@<TRIPOS>SUBSTRUCTURE
     1  FA4      1

