@<TRIPOS>MOLECULE
2d1o_ligand_019
    77    77
SMALL
GAST_HUCK
****
This file was generated by PARSER (from files_GN.cpp)

@<TRIPOS>ATOM
      1 C1         29.2375    7.2674   27.0038 C.ar        1 FA4      -0.0755
      2 C2         28.9089    7.8478   25.7644 C.ar        1 FA4      -0.0668
      3 C3         29.3887    7.3100   24.5388 C.ar        1 FA4      -0.0377
      4 C4         30.2568    6.1728   24.5885 C.ar        1 FA4      -0.0050
      5 C5         30.5657    5.5936   25.8499 C.ar        1 FA4      -0.0635
      6 C6         30.0538    6.1276   27.0459 C.ar        1 FA4      -0.0754
      7 C7         28.9452    7.9745   23.2750 C.3         1 FA4      -0.0215
      8 C8         30.0210    8.9264   22.6752 C.3         1 FA4      -0.0443
      9 C9         29.4751   10.0019   21.6899 C.3         1 FA4      -0.0514
     10 C10        28.5000    9.5136   20.5764 C.3         1 FA4      -0.0529
     11 C11        29.1575    8.6618   19.4441 C.3         1 FA4      -0.0530
     12 C12        28.8106    9.1458   18.0074 C.3         1 FA4      -0.0529
     13 C13        29.1864    8.1429   16.8796 C.3         1 FA4      -0.0510
     14 C14        30.4736    7.2913   17.0942 C.3         1 FA4      -0.0361
     15 C15        31.7468    8.0988   17.5096 C.3         1 FA4       0.0374
     16 C16        32.8330    7.9921   16.5594 C.2         1 FA4       0.1782
     17 N17        33.0093    8.9323   15.6327 N.am        1 FA4      -0.2657
     18 C18        34.0146    8.9385   14.5973 C.3         1 FA4       0.1325
     19 O19        33.5479    6.9872   16.5993 O.2         1 FA4      -0.3969
     20 C20        34.5493   10.3853   14.3575 C.3         1 FA4      -0.0123
     21 C21        33.5081    8.3131   13.3781 C.2         1 FA4       0.2244
     22 N22        34.1391    7.3001   12.8187 N.am        1 FA4      -0.1623
     23 C23        33.8971   11.2104   13.2032 C.3         1 FA4      -0.0440
     24 C24        34.6183   12.5515   12.9140 C.3         1 FA4      -0.0124
     25 C25        34.1895   13.1931   11.5726 C.3         1 FA4      -0.0354
     26 N26        35.0577   14.3211   11.2105 N.4         1 FA4       0.2185
     27 C27        30.8564    5.5281   23.3880 C.3         1 FA4       0.0939
     28 N28        30.0613    4.4416   23.0054 N.pl3       1 FA4      -0.2620
     29 C29        30.3179    3.1895   23.0976 C.cat       1 FA4       0.2900
     30 N30        29.4377    2.3725   22.6670 N.pl3       1 FA4      -0.2847
     31 N31        31.3774    2.6689   23.5953 N.pl3       1 FA4      -0.2847
     32 O32        33.6969    6.7706   11.7157 O.3         1 FA4      -0.2717
     33 O33        32.4706    8.7292   12.8718 O.2         1 FA4      -0.3944
     34 H1         28.8619    7.6615   27.8738 H           1 FA4       0.0541
     35 H2         28.2977    8.6696   25.7687 H           1 FA4       0.0537
     36 H3         31.1568    4.7581   25.9126 H           1 FA4       0.0538
     37 H4         30.2785    5.6918   27.9438 H           1 FA4       0.0541
     38 H5         28.0336    8.5445   23.4735 H           1 FA4       0.0411
     39 H6         28.6617    7.2236   22.5350 H           1 FA4       0.0411
     40 H7         30.7822    8.3229   22.1708 H           1 FA4       0.0286
     41 H8         30.5291    9.4616   23.4852 H           1 FA4       0.0286
     42 H9         30.3304   10.4873   21.2106 H           1 FA4       0.0267
     43 H10        28.9547   10.7600   22.2771 H           1 FA4       0.0267
     44 H11        28.0206   10.4051   20.1546 H           1 FA4       0.0265
     45 H12        27.7029    8.9266   21.0437 H           1 FA4       0.0265
     46 H13        28.8281    7.6228   19.5502 H           1 FA4       0.0265
     47 H14        30.2455    8.6745   19.5397 H           1 FA4       0.0265
     48 H15        29.3102   10.0998   17.8194 H           1 FA4       0.0265
     49 H16        27.7346    9.3259   17.9397 H           1 FA4       0.0265
     50 H17        29.2967    8.6979   15.9406 H           1 FA4       0.0267
     51 H18        28.3496    7.4504   16.7444 H           1 FA4       0.0267
     52 H19        30.6608    6.7469   16.1601 H           1 FA4       0.0290
     53 H20        30.2758    6.5258   17.8497 H           1 FA4       0.0290
     54 H21        32.1120    7.7277   18.4778 H           1 FA4       0.0502
     55 H22        31.4997    9.1550   17.6730 H           1 FA4       0.0502
     56 H23        32.3775    9.6772   15.6214 H           1 FA4       0.1882
     57 H24        34.8804    8.3748   14.9544 H           1 FA4       0.0799
     58 H25        35.6254   10.3227   14.1394 H           1 FA4       0.0312
     59 H26        34.4481   10.9589   15.2900 H           1 FA4       0.0312
     60 H27        34.9374    6.9378   13.2380 H           1 FA4       0.2217
     61 H28        32.8447   11.4029   13.4378 H           1 FA4       0.0269
     62 H29        33.9408   10.6095   12.2923 H           1 FA4       0.0269
     63 H30        35.7045   12.3749   12.8862 H           1 FA4       0.0317
     64 H31        34.4112   13.2548   13.7334 H           1 FA4       0.0317
     65 H32        33.1617   13.5512   11.6436 H           1 FA4       0.0813
     66 H33        34.2461   12.4498   10.7732 H           1 FA4       0.0813
     67 H34        34.7773   14.6896   10.3018 H           1 FA4       0.1994
     68 H35        36.0318   14.0083   11.1597 H           1 FA4       0.1994
     69 H36        34.9788   15.0599   11.9132 H           1 FA4       0.1994
     70 H37        31.8967    5.2513   23.5881 H           1 FA4       0.0839
     71 H38        30.8990    6.2304   22.5530 H           1 FA4       0.0839
     72 H39        29.2319    4.6538   22.6311 H           1 FA4       0.2664
     73 H40        29.5947    1.4511   22.7333 H           1 FA4       0.2615
     74 H41        28.6368    2.6858   22.3026 H           1 FA4       0.2615
     75 H42        32.0631    3.1983   23.9377 H           1 FA4       0.2615
     76 H43        31.4591    1.7379   23.6239 H           1 FA4       0.2615
     77 H44        34.0267    5.8445   11.7233 H           1 FA4       0.2490
@<TRIPOS>BOND
     1     1     2  ar
     2     1     6  ar
     3     2     3  ar
     4     3     4  ar
     5     3     7   1
     6     4     5  ar
     7     4    27   1
     8     5     6  ar
     9     7     8   1
    10     8     9   1
    11     9    10   1
    12    10    11   1
    13    11    12   1
    14    12    13   1
    15    13    14   1
    16    14    15   1
    17    15    16   1
    18    16    17  am
    19    16    19   2
    20    17    18   1
    21    18    20   1
    22    18    21   1
    23    20    23   1
    24    21    22  am
    25    21    33   2
    26    22    32   1
    27    23    24   1
    28    24    25   1
    29    25    26   1
    30    27    28   1
    31    28    29  ar
    32    29    30  ar
    33    29    31  ar
    34     1    34   1
    35     2    35   1
    36     5    36   1
    37     6    37   1
    38     7    38   1
    39     7    39   1
    40     8    40   1
    41     8    41   1
    42     9    42   1
    43     9    43   1
    44    10    44   1
    45    10    45   1
    46    11    46   1
    47    11    47   1
    48    12    48   1
    49    12    49   1
    50    13    50   1
    51    13    51   1
    52    14    52   1
    53    14    53   1
    54    15    54   1
    55    15    55   1
    56    17    56   1
    57    18    57   1
    58    20    58   1
    59    20    59   1
    60    22    60   1
    61    23    61   1
    62    23    62   1
    63    24    63   1
    64    24    64   1
    65    25    65   1
    66    25    66   1
    67    26    67   1
    68    26    68   1
    69    26    69   1
    70    27    70   1
    71    27    71   1
    72    28    72   1
    73    30    73   1
    74    30    74   1
    75    31    75   1
    76    31    76   1
    77    32    77   1
@<TRIPOS>SUBSTRUCTURE
     1  FA4      1

