@<TRIPOS>MOLECULE
2d1o_ligand_081
    77    77
SMALL
GAST_HUCK
****
This file was generated by PARSER (from files_GN.cpp)

@<TRIPOS>ATOM
      1 C1         25.8064    3.8824   12.4964 C.ar        1 FA4      -0.0755
      2 C2         26.6427    4.9644   12.7993 C.ar        1 FA4      -0.0668
      3 C3         27.7105    4.8542   13.7244 C.ar        1 FA4      -0.0377
      4 C4         27.9443    3.5792   14.3426 C.ar        1 FA4      -0.0050
      5 C5         27.0864    2.4930   14.0140 C.ar        1 FA4      -0.0635
      6 C6         26.0315    2.6382   13.1062 C.ar        1 FA4      -0.0754
      7 C7         28.5415    6.0816   13.9639 C.3         1 FA4      -0.0215
      8 C8         28.6143    6.5295   15.4480 C.3         1 FA4      -0.0443
      9 C9         29.6813    7.6336   15.7315 C.3         1 FA4      -0.0514
     10 C10        30.4037    7.5109   17.0981 C.3         1 FA4      -0.0529
     11 C11        29.4638    7.3096   18.3234 C.3         1 FA4      -0.0530
     12 C12        30.2620    7.1620   19.6436 C.3         1 FA4      -0.0529
     13 C13        29.5482    6.4147   20.8009 C.3         1 FA4      -0.0510
     14 C14        28.5419    7.2728   21.6118 C.3         1 FA4      -0.0361
     15 C15        28.1843    6.6849   23.0104 C.3         1 FA4       0.0374
     16 C16        28.8844    7.3147   24.1194 C.2         1 FA4       0.1782
     17 N17        28.2118    7.7280   25.1870 N.am        1 FA4      -0.2657
     18 C18        28.7336    8.4207   26.3357 C.3         1 FA4       0.1325
     19 O19        30.0981    7.4937   24.0371 O.2         1 FA4      -0.3969
     20 C20        29.5873    7.4863   27.2518 C.3         1 FA4      -0.0123
     21 C21        27.6097    9.0078   27.0520 C.2         1 FA4       0.2244
     22 N22        26.6575    8.2340   27.5628 N.am        1 FA4      -0.1623
     23 C23        30.3770    8.1974   28.4002 C.3         1 FA4      -0.0440
     24 C24        31.8764    8.5037   28.1204 C.3         1 FA4      -0.0124
     25 C25        32.1720    9.3808   26.8811 C.3         1 FA4      -0.0354
     26 N26        32.0871   10.8178   27.1725 N.4         1 FA4       0.2185
     27 C27        28.9752    3.3012   15.4094 C.3         1 FA4       0.0939
     28 N28        30.1885    3.9776   15.3664 N.pl3       1 FA4      -0.2620
     29 C29        31.0548    3.9684   14.4279 C.cat       1 FA4       0.2900
     30 N30        32.1157    4.6659   14.5996 N.pl3       1 FA4      -0.2847
     31 N31        30.9463    3.3272   13.3267 N.pl3       1 FA4      -0.2847
     32 O32        25.6204    8.7114   28.1935 O.3         1 FA4      -0.2717
     33 O33        27.5303   10.2239   27.1664 O.2         1 FA4      -0.3944
     34 H1         25.0321    3.9866   11.8282 H           1 FA4       0.0541
     35 H2         26.4403    5.8516   12.3322 H           1 FA4       0.0537
     36 H3         27.2089    1.5791   14.4529 H           1 FA4       0.0538
     37 H4         25.4233    1.8453   12.8927 H           1 FA4       0.0541
     38 H5         28.1558    6.9309   13.3875 H           1 FA4       0.0411
     39 H6         29.5446    5.9054   13.5653 H           1 FA4       0.0411
     40 H7         28.8086    5.6649   16.0735 H           1 FA4       0.0286
     41 H8         27.6319    6.9029   15.7335 H           1 FA4       0.0286
     42 H9         29.2015    8.6208   15.6847 H           1 FA4       0.0267
     43 H10        30.4516    7.6193   14.9567 H           1 FA4       0.0267
     44 H11        30.9877    8.4226   17.2484 H           1 FA4       0.0265
     45 H12        31.1084    6.6803   17.0543 H           1 FA4       0.0265
     46 H13        28.8527    6.4156   18.1758 H           1 FA4       0.0265
     47 H14        28.7880    8.1704   18.4076 H           1 FA4       0.0265
     48 H15        30.5435    8.1613   19.9920 H           1 FA4       0.0265
     49 H16        31.1875    6.6196   19.4261 H           1 FA4       0.0265
     50 H17        30.3309    6.0461   21.4635 H           1 FA4       0.0267
     51 H18        29.0297    5.5450   20.3956 H           1 FA4       0.0267
     52 H19        27.6184    7.3493   21.0303 H           1 FA4       0.0290
     53 H20        28.9276    8.2896   21.7345 H           1 FA4       0.0290
     54 H21        28.3834    5.6103   23.0213 H           1 FA4       0.0502
     55 H22        27.1008    6.7991   23.1489 H           1 FA4       0.0502
     56 H23        27.2492    7.5860   25.1631 H           1 FA4       0.1882
     57 H24        29.3761    9.2264   25.9679 H           1 FA4       0.0799
     58 H25        30.2982    6.9281   26.6382 H           1 FA4       0.0312
     59 H26        28.9207    6.7425   27.6985 H           1 FA4       0.0312
     60 H27        26.7228    7.2707   27.4413 H           1 FA4       0.2217
     61 H28        30.3542    7.5418   29.2764 H           1 FA4       0.0269
     62 H29        29.8724    9.1197   28.7004 H           1 FA4       0.0269
     63 H30        32.4114    7.5578   28.0103 H           1 FA4       0.0317
     64 H31        32.2925    9.0064   28.9976 H           1 FA4       0.0317
     65 H32        31.4849    9.1322   26.0718 H           1 FA4       0.0813
     66 H33        33.1847    9.1678   26.5318 H           1 FA4       0.0813
     67 H34        32.2483   11.3375   26.3084 H           1 FA4       0.1994
     68 H35        32.7991   11.0712   27.8598 H           1 FA4       0.1994
     69 H36        31.1604   11.0475   27.5323 H           1 FA4       0.1994
     70 H37        29.2111    2.2265   15.4471 H           1 FA4       0.0839
     71 H38        28.4970    3.5276   16.3710 H           1 FA4       0.0839
     72 H39        30.4121    4.4659   16.1149 H           1 FA4       0.2664
     73 H40        32.7615    4.6998   13.9273 H           1 FA4       0.2615
     74 H41        32.2405    5.1425   15.3943 H           1 FA4       0.2615
     75 H42        30.1937    2.8007   13.1534 H           1 FA4       0.2615
     76 H43        31.6308    3.3925   12.6871 H           1 FA4       0.2615
     77 H44        24.8464    8.4117   27.6636 H           1 FA4       0.2490
@<TRIPOS>BOND
     1     1     2  ar
     2     1     6  ar
     3     2     3  ar
     4     3     4  ar
     5     3     7   1
     6     4     5  ar
     7     4    27   1
     8     5     6  ar
     9     7     8   1
    10     8     9   1
    11     9    10   1
    12    10    11   1
    13    11    12   1
    14    12    13   1
    15    13    14   1
    16    14    15   1
    17    15    16   1
    18    16    17  am
    19    16    19   2
    20    17    18   1
    21    18    20   1
    22    18    21   1
    23    20    23   1
    24    21    22  am
    25    21    33   2
    26    22    32   1
    27    23    24   1
    28    24    25   1
    29    25    26   1
    30    27    28   1
    31    28    29  ar
    32    29    30  ar
    33    29    31  ar
    34     1    34   1
    35     2    35   1
    36     5    36   1
    37     6    37   1
    38     7    38   1
    39     7    39   1
    40     8    40   1
    41     8    41   1
    42     9    42   1
    43     9    43   1
    44    10    44   1
    45    10    45   1
    46    11    46   1
    47    11    47   1
    48    12    48   1
    49    12    49   1
    50    13    50   1
    51    13    51   1
    52    14    52   1
    53    14    53   1
    54    15    54   1
    55    15    55   1
    56    17    56   1
    57    18    57   1
    58    20    58   1
    59    20    59   1
    60    22    60   1
    61    23    61   1
    62    23    62   1
    63    24    63   1
    64    24    64   1
    65    25    65   1
    66    25    66   1
    67    26    67   1
    68    26    68   1
    69    26    69   1
    70    27    70   1
    71    27    71   1
    72    28    72   1
    73    30    73   1
    74    30    74   1
    75    31    75   1
    76    31    76   1
    77    32    77   1
@<TRIPOS>SUBSTRUCTURE
     1  FA4      1

