@<TRIPOS>MOLECULE
2d1o_ligand_091
    77    77
SMALL
GAST_HUCK
****
This file was generated by PARSER (from files_GN.cpp)

@<TRIPOS>ATOM
      1 C1         24.6541    5.5324   13.0432 C.ar        1 FA4      -0.0755
      2 C2         24.3348    4.7300   14.1455 C.ar        1 FA4      -0.0668
      3 C3         25.2778    3.8259   14.6998 C.ar        1 FA4      -0.0377
      4 C4         26.6092    3.7849   14.1579 C.ar        1 FA4      -0.0050
      5 C5         26.9022    4.6082   13.0420 C.ar        1 FA4      -0.0635
      6 C6         25.9493    5.4819   12.5012 C.ar        1 FA4      -0.0754
      7 C7         24.8217    3.0005   15.8655 C.3         1 FA4      -0.0215
      8 C8         24.3489    1.5513   15.5460 C.3         1 FA4      -0.0443
      9 C9         22.9551    1.3907   14.8711 C.3         1 FA4      -0.0514
     10 C10        22.9270    1.6614   13.3371 C.3         1 FA4      -0.0529
     11 C11        21.6645    1.1275   12.6060 C.3         1 FA4      -0.0530
     12 C12        20.3324    1.8812   12.8865 C.3         1 FA4      -0.0529
     13 C13        20.3807    3.4111   12.6028 C.3         1 FA4      -0.0510
     14 C14        18.9762    4.0103   12.2971 C.3         1 FA4      -0.0361
     15 C15        18.9602    5.5699   12.1941 C.3         1 FA4       0.0374
     16 C16        18.7708    6.2298   13.4737 C.2         1 FA4       0.1782
     17 N17        17.6475    6.9093   13.7063 N.am        1 FA4      -0.2657
     18 C18        17.2259    7.5176   14.9379 C.3         1 FA4       0.1325
     19 O19        19.6476    6.1269   14.3264 O.2         1 FA4      -0.3969
     20 C20        15.8451    6.9222   15.3550 C.3         1 FA4      -0.0123
     21 C21        17.1209    8.9643   14.7480 C.2         1 FA4       0.2244
     22 N22        16.2852    9.4742   13.8556 N.am        1 FA4      -0.1623
     23 C23        15.8653    5.3887   15.6449 C.3         1 FA4      -0.0440
     24 C24        14.4459    4.7406   15.5612 C.3         1 FA4      -0.0124
     25 C25        14.1201    4.0130   14.2289 C.3         1 FA4      -0.0354
     26 N26        14.6250    4.6852   13.0198 N.4         1 FA4       0.2185
     27 C27        27.6800    2.9158   14.7529 C.3         1 FA4       0.0939
     28 N28        28.8870    2.7636   14.0441 N.pl3       1 FA4      -0.2620
     29 C29        29.9152    3.5299   14.0399 C.cat       1 FA4       0.2900
     30 N30        30.9161    3.1745   13.3298 N.pl3       1 FA4      -0.2847
     31 N31        30.0046    4.6268   14.6904 N.pl3       1 FA4      -0.2847
     32 O32        16.1008   10.7573   13.6723 O.3         1 FA4      -0.2717
     33 O33        17.7938    9.7046   15.4556 O.2         1 FA4      -0.3944
     34 H1         23.9590    6.1707   12.6441 H           1 FA4       0.0541
     35 H2         23.3795    4.7891   14.5231 H           1 FA4       0.0537
     36 H3         27.8320    4.5988   12.6207 H           1 FA4       0.0538
     37 H4         26.1976    6.0843   11.7148 H           1 FA4       0.0541
     38 H5         24.0092    3.5029   16.4048 H           1 FA4       0.0411
     39 H6         25.6328    2.9406   16.5897 H           1 FA4       0.0411
     40 H7         24.2983    1.0189   16.5020 H           1 FA4       0.0286
     41 H8         25.0960    1.0305   14.9440 H           1 FA4       0.0286
     42 H9         22.2288    2.0355   15.3759 H           1 FA4       0.0267
     43 H10        22.6376    0.3543   15.0239 H           1 FA4       0.0267
     44 H11        23.8002    1.1837   12.8788 H           1 FA4       0.0265
     45 H12        23.0075    2.7317   13.1467 H           1 FA4       0.0265
     46 H13        21.5289    0.0753   12.8739 H           1 FA4       0.0265
     47 H14        21.8565    1.1656   11.5313 H           1 FA4       0.0265
     48 H15        20.0329    1.7207   13.9273 H           1 FA4       0.0265
     49 H16        19.5697    1.4189   12.2478 H           1 FA4       0.0265
     50 H17        21.0257    3.6033   11.7351 H           1 FA4       0.0267
     51 H18        20.8148    3.9196   13.4734 H           1 FA4       0.0267
     52 H19        18.2571    3.6701   13.0556 H           1 FA4       0.0290
     53 H20        18.6454    3.5982   11.3357 H           1 FA4       0.0290
     54 H21        18.1506    5.8511   11.5068 H           1 FA4       0.0502
     55 H22        19.8900    5.9350   11.7436 H           1 FA4       0.0502
     56 H23        17.0268    6.9779   12.9605 H           1 FA4       0.1882
     57 H24        17.9401    7.3058   15.7485 H           1 FA4       0.0799
     58 H25        15.1200    7.1293   14.5596 H           1 FA4       0.0312
     59 H26        15.4968    7.4298   16.2675 H           1 FA4       0.0312
     60 H27        15.7759    8.8596   13.3025 H           1 FA4       0.2217
     61 H28        16.2634    5.2374   16.6532 H           1 FA4       0.0269
     62 H29        16.5392    4.8697   14.9525 H           1 FA4       0.0269
     63 H30        13.6783    5.4993   15.7493 H           1 FA4       0.0317
     64 H31        14.3490    4.0006   16.3600 H           1 FA4       0.0317
     65 H32        13.0346    3.9117   14.1308 H           1 FA4       0.0813
     66 H33        14.5417    2.9997   14.2444 H           1 FA4       0.0813
     67 H34        14.1939    4.2697   12.1926 H           1 FA4       0.1994
     68 H35        15.6367    4.5584   12.9683 H           1 FA4       0.1994
     69 H36        14.4249    5.6846   13.0377 H           1 FA4       0.1994
     70 H37        27.2851    1.9041   14.8394 H           1 FA4       0.0839
     71 H38        27.9006    3.2547   15.7676 H           1 FA4       0.0839
     72 H39        28.9453    1.9828   13.5244 H           1 FA4       0.2664
     73 H40        31.6927    3.7020   13.2930 H           1 FA4       0.2615
     74 H41        30.8735    2.3770   12.8426 H           1 FA4       0.2615
     75 H42        29.2942    4.9257   15.2202 H           1 FA4       0.2615
     76 H43        30.7835    5.1412   14.6412 H           1 FA4       0.2615
     77 H44        16.2238   11.1818   14.5499 H           1 FA4       0.2490
@<TRIPOS>BOND
     1     1     2  ar
     2     1     6  ar
     3     2     3  ar
     4     3     4  ar
     5     3     7   1
     6     4     5  ar
     7     4    27   1
     8     5     6  ar
     9     7     8   1
    10     8     9   1
    11     9    10   1
    12    10    11   1
    13    11    12   1
    14    12    13   1
    15    13    14   1
    16    14    15   1
    17    15    16   1
    18    16    17  am
    19    16    19   2
    20    17    18   1
    21    18    20   1
    22    18    21   1
    23    20    23   1
    24    21    22  am
    25    21    33   2
    26    22    32   1
    27    23    24   1
    28    24    25   1
    29    25    26   1
    30    27    28   1
    31    28    29  ar
    32    29    30  ar
    33    29    31  ar
    34     1    34   1
    35     2    35   1
    36     5    36   1
    37     6    37   1
    38     7    38   1
    39     7    39   1
    40     8    40   1
    41     8    41   1
    42     9    42   1
    43     9    43   1
    44    10    44   1
    45    10    45   1
    46    11    46   1
    47    11    47   1
    48    12    48   1
    49    12    49   1
    50    13    50   1
    51    13    51   1
    52    14    52   1
    53    14    53   1
    54    15    54   1
    55    15    55   1
    56    17    56   1
    57    18    57   1
    58    20    58   1
    59    20    59   1
    60    22    60   1
    61    23    61   1
    62    23    62   1
    63    24    63   1
    64    24    64   1
    65    25    65   1
    66    25    66   1
    67    26    67   1
    68    26    68   1
    69    26    69   1
    70    27    70   1
    71    27    71   1
    72    28    72   1
    73    30    73   1
    74    30    74   1
    75    31    75   1
    76    31    76   1
    77    32    77   1
@<TRIPOS>SUBSTRUCTURE
     1  FA4      1

