@<TRIPOS>MOLECULE
2d1o_ligand_069
    77    77
SMALL
GAST_HUCK
****
This file was generated by PARSER (from files_GN.cpp)

@<TRIPOS>ATOM
      1 C1         33.9569   11.2150   20.3545 C.ar        1 FA4      -0.0755
      2 C2         32.6191   11.3225   20.7568 C.ar        1 FA4      -0.0668
      3 C3         32.2040   12.2272   21.7697 C.ar        1 FA4      -0.0377
      4 C4         33.1912   13.0964   22.3438 C.ar        1 FA4      -0.0050
      5 C5         34.5498   12.9394   21.9498 C.ar        1 FA4      -0.0635
      6 C6         34.9298   12.0147   20.9632 C.ar        1 FA4      -0.0754
      7 C7         30.7412   12.2506   22.1295 C.3         1 FA4      -0.0215
      8 C8         30.0998   10.8740   22.5095 C.3         1 FA4      -0.0443
      9 C9         29.2114   10.2619   21.3882 C.3         1 FA4      -0.0514
     10 C10        28.7515    8.8043   21.6541 C.3         1 FA4      -0.0529
     11 C11        28.1864    8.0613   20.4101 C.3         1 FA4      -0.0530
     12 C12        29.2445    7.6281   19.3397 C.3         1 FA4      -0.0529
     13 C13        29.3408    8.5469   18.0853 C.3         1 FA4      -0.0510
     14 C14        30.4542    8.1571   17.0663 C.3         1 FA4      -0.0361
     15 C15        31.9129    8.3846   17.5617 C.3         1 FA4       0.0374
     16 C16        32.9011    8.1451   16.5236 C.2         1 FA4       0.1782
     17 N17        33.1149    9.0547   15.5776 N.am        1 FA4      -0.2657
     18 C18        34.0895    8.9662   14.5188 C.3         1 FA4       0.1325
     19 O19        33.5574    7.1077   16.5716 O.2         1 FA4      -0.3969
     20 C20        34.6890   10.3727   14.1810 C.3         1 FA4      -0.0123
     21 C21        33.5296    8.2734   13.3589 C.2         1 FA4       0.2244
     22 N22        34.1490    7.2476   12.8028 N.am        1 FA4      -0.1623
     23 C23        33.8761   11.2863   13.2171 C.3         1 FA4      -0.0440
     24 C24        34.5367   12.6713   12.9726 C.3         1 FA4      -0.0124
     25 C25        33.8808   13.4575   11.8075 C.3         1 FA4      -0.0354
     26 N26        34.5393   14.7536   11.6064 N.4         1 FA4       0.2185
     27 C27        32.8335   14.1611   23.3390 C.3         1 FA4       0.0939
     28 N28        33.7993   15.1299   23.6686 N.pl3       1 FA4      -0.2620
     29 C29        34.2352   16.0746   22.9186 C.cat       1 FA4       0.2900
     30 N30        35.1148   16.8684   23.3988 N.pl3       1 FA4      -0.2847
     31 N31        33.8550   16.2803   21.7156 N.pl3       1 FA4      -0.2847
     32 O32        33.6613    6.6648   11.7441 O.3         1 FA4      -0.2717
     33 O33        32.4602    8.6480   12.8916 O.2         1 FA4      -0.3944
     34 H1         34.2203   10.5535   19.6240 H           1 FA4       0.0541
     35 H2         31.9512   10.7125   20.2946 H           1 FA4       0.0537
     36 H3         35.2921   13.5046   22.3720 H           1 FA4       0.0538
     37 H4         35.9081   11.9377   20.6797 H           1 FA4       0.0541
     38 H5         30.2037   12.6955   21.2876 H           1 FA4       0.0411
     39 H6         30.5619   12.9091   22.9783 H           1 FA4       0.0411
     40 H7         29.4645   11.0038   23.3889 H           1 FA4       0.0286
     41 H8         30.8845   10.1701   22.7907 H           1 FA4       0.0286
     42 H9         29.7719   10.2902   20.4622 H           1 FA4       0.0267
     43 H10        28.3309   10.8976   21.2490 H           1 FA4       0.0267
     44 H11        27.9759    8.8371   22.4253 H           1 FA4       0.0265
     45 H12        29.5851    8.2274   22.0590 H           1 FA4       0.0265
     46 H13        27.4076    8.6677   19.9459 H           1 FA4       0.0265
     47 H14        27.7058    7.1565   20.7833 H           1 FA4       0.0265
     48 H15        28.9819    6.6255   18.9849 H           1 FA4       0.0265
     49 H16        30.2256    7.5464   19.8151 H           1 FA4       0.0265
     50 H17        29.5051    9.5849   18.3748 H           1 FA4       0.0267
     51 H18        28.3778    8.5131   17.5667 H           1 FA4       0.0267
     52 H19        30.2931    8.7590   16.1659 H           1 FA4       0.0290
     53 H20        30.3215    7.1076   16.7885 H           1 FA4       0.0290
     54 H21        32.1061    7.7164   18.4077 H           1 FA4       0.0502
     55 H22        32.0276    9.4098   17.9296 H           1 FA4       0.0502
     56 H23        32.5949    9.8752   15.6322 H           1 FA4       0.1882
     57 H24        34.9428    8.3889   14.8940 H           1 FA4       0.0799
     58 H25        35.6697   10.2148   13.7192 H           1 FA4       0.0312
     59 H26        34.8624   10.9133   15.1184 H           1 FA4       0.0312
     60 H27        34.9762    6.9186   13.1919 H           1 FA4       0.2217
     61 H28        32.8636   11.4286   13.6066 H           1 FA4       0.0269
     62 H29        33.8050   10.7799   12.2497 H           1 FA4       0.0269
     63 H30        35.5960   12.5239   12.7350 H           1 FA4       0.0317
     64 H31        34.4768   13.2614   13.8940 H           1 FA4       0.0317
     65 H32        32.8243   13.6263   12.0147 H           1 FA4       0.0813
     66 H33        33.9654   12.8781   10.8836 H           1 FA4       0.0813
     67 H34        34.1048   15.2401   10.8201 H           1 FA4       0.1994
     68 H35        35.5321   14.6109   11.4075 H           1 FA4       0.1994
     69 H36        34.4412   15.3226   12.4509 H           1 FA4       0.1994
     70 H37        32.5571   13.6605   24.2688 H           1 FA4       0.0839
     71 H38        31.9525   14.7036   22.9894 H           1 FA4       0.0839
     72 H39        34.1460   15.0901   24.5355 H           1 FA4       0.2664
     73 H40        35.4490   17.5656   22.8740 H           1 FA4       0.2615
     74 H41        35.4232   16.7551   24.2735 H           1 FA4       0.2615
     75 H42        33.2152   15.7242   21.3210 H           1 FA4       0.2615
     76 H43        34.2157   16.9886   21.2258 H           1 FA4       0.2615
     77 H44        34.0736    5.7772   11.7208 H           1 FA4       0.2490
@<TRIPOS>BOND
     1     1     2  ar
     2     1     6  ar
     3     2     3  ar
     4     3     4  ar
     5     3     7   1
     6     4     5  ar
     7     4    27   1
     8     5     6  ar
     9     7     8   1
    10     8     9   1
    11     9    10   1
    12    10    11   1
    13    11    12   1
    14    12    13   1
    15    13    14   1
    16    14    15   1
    17    15    16   1
    18    16    17  am
    19    16    19   2
    20    17    18   1
    21    18    20   1
    22    18    21   1
    23    20    23   1
    24    21    22  am
    25    21    33   2
    26    22    32   1
    27    23    24   1
    28    24    25   1
    29    25    26   1
    30    27    28   1
    31    28    29  ar
    32    29    30  ar
    33    29    31  ar
    34     1    34   1
    35     2    35   1
    36     5    36   1
    37     6    37   1
    38     7    38   1
    39     7    39   1
    40     8    40   1
    41     8    41   1
    42     9    42   1
    43     9    43   1
    44    10    44   1
    45    10    45   1
    46    11    46   1
    47    11    47   1
    48    12    48   1
    49    12    49   1
    50    13    50   1
    51    13    51   1
    52    14    52   1
    53    14    53   1
    54    15    54   1
    55    15    55   1
    56    17    56   1
    57    18    57   1
    58    20    58   1
    59    20    59   1
    60    22    60   1
    61    23    61   1
    62    23    62   1
    63    24    63   1
    64    24    64   1
    65    25    65   1
    66    25    66   1
    67    26    67   1
    68    26    68   1
    69    26    69   1
    70    27    70   1
    71    27    71   1
    72    28    72   1
    73    30    73   1
    74    30    74   1
    75    31    75   1
    76    31    76   1
    77    32    77   1
@<TRIPOS>SUBSTRUCTURE
     1  FA4      1

