@<TRIPOS>MOLECULE
2d1o_ligand_072
    77    77
SMALL
GAST_HUCK
****
This file was generated by PARSER (from files_GN.cpp)

@<TRIPOS>ATOM
      1 C1         25.8367    3.8099   12.4921 C.ar        1 FA4      -0.0755
      2 C2         26.6363    4.9100   12.8379 C.ar        1 FA4      -0.0668
      3 C3         27.6876    4.8055   13.7845 C.ar        1 FA4      -0.0377
      4 C4         27.9464    3.5230   14.3753 C.ar        1 FA4      -0.0050
      5 C5         27.1030    2.4343   14.0219 C.ar        1 FA4      -0.0635
      6 C6         26.0650    2.5654   13.0871 C.ar        1 FA4      -0.0754
      7 C7         28.4901    6.0442   14.0387 C.3         1 FA4      -0.0215
      8 C8         28.5241    6.5276   15.5209 C.3         1 FA4      -0.0443
      9 C9         29.6703    7.5340   15.8549 C.3         1 FA4      -0.0514
     10 C10        30.3146    7.3436   17.2607 C.3         1 FA4      -0.0529
     11 C11        29.3363    7.2380   18.4662 C.3         1 FA4      -0.0530
     12 C12        30.0769    7.1123   19.8330 C.3         1 FA4      -0.0529
     13 C13        29.3738    6.1989   20.8743 C.3         1 FA4      -0.0510
     14 C14        28.0701    6.7660   21.5080 C.3         1 FA4      -0.0361
     15 C15        27.2010    5.7349   22.2874 C.3         1 FA4       0.0374
     16 C16        27.9182    4.9419   23.2713 C.2         1 FA4       0.1782
     17 N17        27.7344    5.1440   24.5705 N.am        1 FA4      -0.2657
     18 C18        28.4000    4.4673   25.6541 C.3         1 FA4       0.1325
     19 O19        28.6570    4.0525   22.8661 O.2         1 FA4      -0.3969
     20 C20        27.4219    3.5134   26.4161 C.3         1 FA4      -0.0123
     21 C21        28.9881    5.4965   26.5080 C.2         1 FA4       0.2244
     22 N22        30.2871    5.7453   26.4579 N.am        1 FA4      -0.1623
     23 C23        26.7797    2.3877   25.5504 C.3         1 FA4      -0.0440
     24 C24        27.7240    1.2116   25.1647 C.3         1 FA4      -0.0124
     25 C25        27.8703    0.1177   26.2535 C.3         1 FA4      -0.0354
     26 N26        26.6873   -0.7509   26.2994 N.4         1 FA4       0.2185
     27 C27        28.9918    3.2158   15.4117 C.3         1 FA4       0.0939
     28 N28        30.2064    3.8960   15.3924 N.pl3       1 FA4      -0.2620
     29 C29        31.0920    3.8798   14.4706 C.cat       1 FA4       0.2900
     30 N30        32.1259    4.6016   14.6529 N.pl3       1 FA4      -0.2847
     31 N31        31.0222    3.2177   13.3797 N.pl3       1 FA4      -0.2847
     32 O32        30.8597    6.6671   27.1811 O.3         1 FA4      -0.2717
     33 O33        28.2641    6.1787   27.2237 O.2         1 FA4      -0.3944
     34 H1         25.0828    3.9159   11.8027 H           1 FA4       0.0541
     35 H2         26.4313    5.8041   12.3725 H           1 FA4       0.0537
     36 H3         27.2336    1.5082   14.4451 H           1 FA4       0.0538
     37 H4         25.4790    1.7679   12.8484 H           1 FA4       0.0541
     38 H5         28.1247    6.8979   13.4518 H           1 FA4       0.0411
     39 H6         29.5015    5.8749   13.6718 H           1 FA4       0.0411
     40 H7         28.5941    5.6617   16.1707 H           1 FA4       0.0286
     41 H8         27.5663    6.9963   15.7556 H           1 FA4       0.0286
     42 H9         29.2976    8.5531   15.7647 H           1 FA4       0.0267
     43 H10        30.4767    7.4329   15.1278 H           1 FA4       0.0267
     44 H11        30.9984    8.1830   17.4306 H           1 FA4       0.0265
     45 H12        30.9284    6.4321   17.2257 H           1 FA4       0.0265
     46 H13        28.7053    6.3631   18.3281 H           1 FA4       0.0265
     47 H14        28.6920    8.1149   18.4800 H           1 FA4       0.0265
     48 H15        30.2242    8.1068   20.2584 H           1 FA4       0.0265
     49 H16        31.0696    6.6863   19.6653 H           1 FA4       0.0265
     50 H17        30.0895    6.0010   21.6768 H           1 FA4       0.0267
     51 H18        29.1456    5.2401   20.3952 H           1 FA4       0.0267
     52 H19        27.4426    7.1741   20.7081 H           1 FA4       0.0290
     53 H20        28.3282    7.5889   22.1730 H           1 FA4       0.0290
     54 H21        26.7245    5.0565   21.5715 H           1 FA4       0.0502
     55 H22        26.3898    6.2860   22.7729 H           1 FA4       0.0502
     56 H23        27.0962    5.8345   24.8209 H           1 FA4       0.1882
     57 H24        29.2160    3.8472   25.2752 H           1 FA4       0.0799
     58 H25        26.6072    4.1070   26.8386 H           1 FA4       0.0312
     59 H26        27.9535    3.0543   27.2526 H           1 FA4       0.0312
     60 H27        30.8383    5.2297   25.8496 H           1 FA4       0.2217
     61 H28        26.3855    2.8327   24.6320 H           1 FA4       0.0269
     62 H29        25.9169    1.9837   26.0866 H           1 FA4       0.0269
     63 H30        28.7156    1.5947   24.9199 H           1 FA4       0.0317
     64 H31        27.3409    0.7403   24.2540 H           1 FA4       0.0317
     65 H32        28.0333    0.5603   27.2373 H           1 FA4       0.0813
     66 H33        28.7327   -0.5110   26.0176 H           1 FA4       0.0813
     67 H34        26.8412   -1.5172   26.9564 H           1 FA4       0.1994
     68 H35        26.5394   -1.1458   25.3688 H           1 FA4       0.1994
     69 H36        25.8643   -0.2142   26.5829 H           1 FA4       0.1994
     70 H37        29.2451    2.1477   15.3841 H           1 FA4       0.0839
     71 H38        28.5279    3.3751   16.3948 H           1 FA4       0.0839
     72 H39        30.3961    4.4062   16.1442 H           1 FA4       0.2664
     73 H40        32.7828    4.6426   13.9901 H           1 FA4       0.2615
     74 H41        32.2255    5.1019   15.4385 H           1 FA4       0.2615
     75 H42        30.2955    2.6627   13.2010 H           1 FA4       0.2615
     76 H43        31.7187    3.2840   12.7594 H           1 FA4       0.2615
     77 H44        31.7645    6.3169   27.3667 H           1 FA4       0.2490
@<TRIPOS>BOND
     1     1     2  ar
     2     1     6  ar
     3     2     3  ar
     4     3     4  ar
     5     3     7   1
     6     4     5  ar
     7     4    27   1
     8     5     6  ar
     9     7     8   1
    10     8     9   1
    11     9    10   1
    12    10    11   1
    13    11    12   1
    14    12    13   1
    15    13    14   1
    16    14    15   1
    17    15    16   1
    18    16    17  am
    19    16    19   2
    20    17    18   1
    21    18    20   1
    22    18    21   1
    23    20    23   1
    24    21    22  am
    25    21    33   2
    26    22    32   1
    27    23    24   1
    28    24    25   1
    29    25    26   1
    30    27    28   1
    31    28    29  ar
    32    29    30  ar
    33    29    31  ar
    34     1    34   1
    35     2    35   1
    36     5    36   1
    37     6    37   1
    38     7    38   1
    39     7    39   1
    40     8    40   1
    41     8    41   1
    42     9    42   1
    43     9    43   1
    44    10    44   1
    45    10    45   1
    46    11    46   1
    47    11    47   1
    48    12    48   1
    49    12    49   1
    50    13    50   1
    51    13    51   1
    52    14    52   1
    53    14    53   1
    54    15    54   1
    55    15    55   1
    56    17    56   1
    57    18    57   1
    58    20    58   1
    59    20    59   1
    60    22    60   1
    61    23    61   1
    62    23    62   1
    63    24    63   1
    64    24    64   1
    65    25    65   1
    66    25    66   1
    67    26    67   1
    68    26    68   1
    69    26    69   1
    70    27    70   1
    71    27    71   1
    72    28    72   1
    73    30    73   1
    74    30    74   1
    75    31    75   1
    76    31    76   1
    77    32    77   1
@<TRIPOS>SUBSTRUCTURE
     1  FA4      1

