@<TRIPOS>MOLECULE
2d1o_ligand_039
    77    77
SMALL
GAST_HUCK
****
This file was generated by PARSER (from files_GN.cpp)

@<TRIPOS>ATOM
      1 C1         30.0612   14.1018   22.8207 C.ar        1 FA4      -0.0755
      2 C2         29.7378   14.3193   21.4725 C.ar        1 FA4      -0.0668
      3 C3         30.6428   13.9980   20.4254 C.ar        1 FA4      -0.0377
      4 C4         31.9176   13.4364   20.7709 C.ar        1 FA4      -0.0050
      5 C5         32.2147   13.2236   22.1409 C.ar        1 FA4      -0.0635
      6 C6         31.3056   13.5534   23.1566 C.ar        1 FA4      -0.0754
      7 C7         30.1661   14.3095   19.0373 C.3         1 FA4      -0.0215
      8 C8         28.8696   13.5673   18.5965 C.3         1 FA4      -0.0443
      9 C9         29.0069   12.0329   18.3933 C.3         1 FA4      -0.0514
     10 C10        28.2951   11.1499   19.4542 C.3         1 FA4      -0.0529
     11 C11        27.9610    9.6957   18.9968 C.3         1 FA4      -0.0530
     12 C12        29.1898    8.7648   18.7512 C.3         1 FA4      -0.0529
     13 C13        29.5447    8.5453   17.2531 C.3         1 FA4      -0.0510
     14 C14        30.8136    7.6845   16.9953 C.3         1 FA4      -0.0361
     15 C15        32.1439    8.3116   17.5249 C.3         1 FA4       0.0374
     16 C16        33.2426    8.1906   16.5820 C.2         1 FA4       0.1782
     17 N17        33.2569    9.0185   15.5442 N.am        1 FA4      -0.2657
     18 C18        34.2132    9.0990   14.4834 C.3         1 FA4       0.1325
     19 O19        34.0943    7.3271   16.7567 O.2         1 FA4      -0.3969
     20 C20        34.6207   10.5825   14.1961 C.3         1 FA4      -0.0123
     21 C21        33.6492    8.4436   13.3056 C.2         1 FA4       0.2244
     22 N22        34.2054    7.3595   12.7965 N.am        1 FA4      -0.1623
     23 C23        33.4500   11.5999   14.0241 C.3         1 FA4      -0.0440
     24 C24        33.7788   12.7628   13.0471 C.3         1 FA4      -0.0124
     25 C25        32.8479   13.9899   13.1817 C.3         1 FA4      -0.0354
     26 N26        31.4569   13.7155   12.7993 N.4         1 FA4       0.2185
     27 C27        32.9799   13.0031   19.8096 C.3         1 FA4       0.0939
     28 N28        34.2275   13.5225   20.2009 N.pl3       1 FA4      -0.2620
     29 C29        35.2211   12.9135   20.7359 C.cat       1 FA4       0.2900
     30 N30        36.2612   13.5953   21.0130 N.pl3       1 FA4      -0.2847
     31 N31        35.2559   11.6697   21.0213 N.pl3       1 FA4      -0.2847
     32 O32        33.6989    6.7749   11.7467 O.3         1 FA4      -0.2717
     33 O33        32.6388    8.8877   12.7751 O.2         1 FA4      -0.3944
     34 H1         29.3901   14.3450   23.5590 H           1 FA4       0.0541
     35 H2         28.8180   14.7232   21.2671 H           1 FA4       0.0537
     36 H3         33.1089   12.8174   22.4223 H           1 FA4       0.0538
     37 H4         31.5497   13.3958   24.1389 H           1 FA4       0.0541
     38 H5         30.9278   14.1243   18.2845 H           1 FA4       0.0411
     39 H6         29.9738   15.3867   18.9851 H           1 FA4       0.0411
     40 H7         28.5724   13.9955   17.6397 H           1 FA4       0.0286
     41 H8         28.0584   13.7738   19.2991 H           1 FA4       0.0286
     42 H9         30.0678   11.7755   18.3653 H           1 FA4       0.0267
     43 H10        28.5753   11.7814   17.4207 H           1 FA4       0.0267
     44 H11        27.3528   11.6286   19.7370 H           1 FA4       0.0265
     45 H12        28.9067   11.0944   20.3583 H           1 FA4       0.0265
     46 H13        27.3299    9.7261   18.1041 H           1 FA4       0.0265
     47 H14        27.3664    9.2463   19.7957 H           1 FA4       0.0265
     48 H15        28.9678    7.7767   19.1780 H           1 FA4       0.0265
     49 H16        30.0538    9.1557   19.2988 H           1 FA4       0.0265
     50 H17        29.6780    9.5012   16.7529 H           1 FA4       0.0267
     51 H18        28.6963    8.0536   16.7668 H           1 FA4       0.0267
     52 H19        30.8780    7.5356   15.9157 H           1 FA4       0.0290
     53 H20        30.6797    6.7006   17.4502 H           1 FA4       0.0290
     54 H21        32.4057    7.8242   18.4736 H           1 FA4       0.0502
     55 H22        31.9901    9.3712   17.7481 H           1 FA4       0.0502
     56 H23        32.5091    9.6327   15.4834 H           1 FA4       0.1882
     57 H24        35.1312    8.5720   14.7680 H           1 FA4       0.0799
     58 H25        35.2518   10.5977   13.3089 H           1 FA4       0.0312
     59 H26        35.2337   10.9318   15.0297 H           1 FA4       0.0312
     60 H27        34.9812    6.9661   13.2259 H           1 FA4       0.2217
     61 H28        33.1985   12.0134   15.0068 H           1 FA4       0.0269
     62 H29        32.5564   11.0941   13.6491 H           1 FA4       0.0269
     63 H30        33.7255   12.3876   12.0223 H           1 FA4       0.0317
     64 H31        34.8069   13.0900   13.2243 H           1 FA4       0.0317
     65 H32        33.2273   14.7904   12.5432 H           1 FA4       0.0813
     66 H33        32.8605   14.3451   14.2121 H           1 FA4       0.0813
     67 H34        30.9221   14.5834   12.8344 H           1 FA4       0.1994
     68 H35        31.0509   13.0466   13.4583 H           1 FA4       0.1994
     69 H36        31.4072   13.3245   11.8542 H           1 FA4       0.1994
     70 H37        32.7998   13.3397   18.7931 H           1 FA4       0.0839
     71 H38        32.9686   11.9075   19.7512 H           1 FA4       0.0839
     72 H39        34.3420   14.4396   20.0697 H           1 FA4       0.2664
     73 H40        37.0018   13.1792   21.4047 H           1 FA4       0.2615
     74 H41        36.2872   14.5135   20.8265 H           1 FA4       0.2615
     75 H42        34.5179   11.1282   20.8430 H           1 FA4       0.2615
     76 H43        36.0113   11.2979   21.4271 H           1 FA4       0.2615
     77 H44        34.0290    5.8506   11.7794 H           1 FA4       0.2490
@<TRIPOS>BOND
     1     1     2  ar
     2     1     6  ar
     3     2     3  ar
     4     3     4  ar
     5     3     7   1
     6     4     5  ar
     7     4    27   1
     8     5     6  ar
     9     7     8   1
    10     8     9   1
    11     9    10   1
    12    10    11   1
    13    11    12   1
    14    12    13   1
    15    13    14   1
    16    14    15   1
    17    15    16   1
    18    16    17  am
    19    16    19   2
    20    17    18   1
    21    18    20   1
    22    18    21   1
    23    20    23   1
    24    21    22  am
    25    21    33   2
    26    22    32   1
    27    23    24   1
    28    24    25   1
    29    25    26   1
    30    27    28   1
    31    28    29  ar
    32    29    30  ar
    33    29    31  ar
    34     1    34   1
    35     2    35   1
    36     5    36   1
    37     6    37   1
    38     7    38   1
    39     7    39   1
    40     8    40   1
    41     8    41   1
    42     9    42   1
    43     9    43   1
    44    10    44   1
    45    10    45   1
    46    11    46   1
    47    11    47   1
    48    12    48   1
    49    12    49   1
    50    13    50   1
    51    13    51   1
    52    14    52   1
    53    14    53   1
    54    15    54   1
    55    15    55   1
    56    17    56   1
    57    18    57   1
    58    20    58   1
    59    20    59   1
    60    22    60   1
    61    23    61   1
    62    23    62   1
    63    24    63   1
    64    24    64   1
    65    25    65   1
    66    25    66   1
    67    26    67   1
    68    26    68   1
    69    26    69   1
    70    27    70   1
    71    27    71   1
    72    28    72   1
    73    30    73   1
    74    30    74   1
    75    31    75   1
    76    31    76   1
    77    32    77   1
@<TRIPOS>SUBSTRUCTURE
     1  FA4      1

