@<TRIPOS>MOLECULE
2d1o_ligand_011
    77    77
SMALL
GAST_HUCK
****
This file was generated by PARSER (from files_GN.cpp)

@<TRIPOS>ATOM
      1 C1         21.0320    1.2913   11.5331 C.ar        1 FA4      -0.0755
      2 C2         22.3470    1.5530   11.9510 C.ar        1 FA4      -0.0668
      3 C3         22.6196    2.4385   13.0251 C.ar        1 FA4      -0.0377
      4 C4         21.5262    3.0915   13.6767 C.ar        1 FA4      -0.0050
      5 C5         20.2070    2.7930   13.2527 C.ar        1 FA4      -0.0635
      6 C6         19.9602    1.9074   12.1908 C.ar        1 FA4      -0.0754
      7 C7         24.0544    2.6655   13.3651 C.3         1 FA4      -0.0215
      8 C8         24.8142    1.4331   13.9396 C.3         1 FA4      -0.0443
      9 C9         25.8382    1.7960   15.0524 C.3         1 FA4      -0.0514
     10 C10        27.1246    2.5483   14.5791 C.3         1 FA4      -0.0529
     11 C11        27.8162    3.3107   15.7392 C.3         1 FA4      -0.0530
     12 C12        28.7830    4.4509   15.2842 C.3         1 FA4      -0.0529
     13 C13        28.4826    5.8297   15.9392 C.3         1 FA4      -0.0510
     14 C14        29.6151    6.8776   15.7272 C.3         1 FA4      -0.0361
     15 C15        30.7017    6.8730   16.8487 C.3         1 FA4       0.0374
     16 C16        32.0167    7.2897   16.3848 C.2         1 FA4       0.1782
     17 N17        32.1441    8.3520   15.5967 N.am        1 FA4      -0.2657
     18 C18        33.3254    8.7352   14.8669 C.3         1 FA4       0.1325
     19 O19        32.9848    6.6135   16.7049 O.2         1 FA4      -0.3969
     20 C20        33.6123   10.2652   14.9976 C.3         1 FA4      -0.0123
     21 C21        33.1581    8.2556   13.4975 C.2         1 FA4       0.2244
     22 N22        33.8878    7.2661   13.0102 N.am        1 FA4      -0.1623
     23 C23        32.8647   11.2097   14.0169 C.3         1 FA4      -0.0440
     24 C24        32.8289   12.6934   14.4772 C.3         1 FA4      -0.0124
     25 C25        32.2202   13.6530   13.4228 C.3         1 FA4      -0.0354
     26 N26        30.7962   13.4036   13.1691 N.4         1 FA4       0.2185
     27 C27        21.6877    4.0488   14.8270 C.3         1 FA4       0.0939
     28 N28        22.5022    5.1763   14.6575 N.pl3       1 FA4      -0.2620
     29 C29        22.7226    5.9018   13.6234 C.cat       1 FA4       0.2900
     30 N30        23.5230    6.8900   13.7803 N.pl3       1 FA4      -0.2847
     31 N31        22.2388    5.7152   12.4541 N.pl3       1 FA4      -0.2847
     32 O32        33.6501    6.7879   11.8158 O.3         1 FA4      -0.2717
     33 O33        32.2275    8.6811   12.8240 O.2         1 FA4      -0.3944
     34 H1         20.8519    0.6492   10.7599 H           1 FA4       0.0541
     35 H2         23.1150    1.1016   11.4432 H           1 FA4       0.0537
     36 H3         19.4010    3.2293   13.7034 H           1 FA4       0.0538
     37 H4         19.0005    1.7107   11.8929 H           1 FA4       0.0541
     38 H5         24.1526    3.4793   14.0724 H           1 FA4       0.0411
     39 H6         24.5663    3.0024   12.4624 H           1 FA4       0.0411
     40 H7         25.3283    0.9045   13.1296 H           1 FA4       0.0286
     41 H8         24.0895    0.7358   14.3723 H           1 FA4       0.0286
     42 H9         26.1417    0.8799   15.5648 H           1 FA4       0.0267
     43 H10        25.3072    2.4113   15.7853 H           1 FA4       0.0267
     44 H11        26.8789    3.2800   13.8033 H           1 FA4       0.0265
     45 H12        27.8173    1.8224   14.1409 H           1 FA4       0.0265
     46 H13        28.3745    2.5882   16.3442 H           1 FA4       0.0265
     47 H14        27.0330    3.7308   16.3797 H           1 FA4       0.0265
     48 H15        28.7248    4.5756   14.1974 H           1 FA4       0.0265
     49 H16        29.8142    4.1638   15.5207 H           1 FA4       0.0265
     50 H17        28.3059    5.6990   17.0111 H           1 FA4       0.0267
     51 H18        27.5549    6.2210   15.5065 H           1 FA4       0.0267
     52 H19        29.1732    7.8781   15.6874 H           1 FA4       0.0290
     53 H20        30.0757    6.7050   14.7503 H           1 FA4       0.0290
     54 H21        30.7736    5.8696   17.2793 H           1 FA4       0.0502
     55 H22        30.3876    7.5417   17.6540 H           1 FA4       0.0502
     56 H23        31.3267    8.8254   15.3685 H           1 FA4       0.1882
     57 H24        34.2002    8.2349   15.3001 H           1 FA4       0.0799
     58 H25        34.6863   10.4288   14.8544 H           1 FA4       0.0312
     59 H26        33.3836   10.5657   16.0237 H           1 FA4       0.0312
     60 H27        34.5697    6.8531   13.5622 H           1 FA4       0.2217
     61 H28        31.8400   10.8533   13.8756 H           1 FA4       0.0269
     62 H29        33.3775   11.1728   13.0548 H           1 FA4       0.0269
     63 H30        33.8508   13.0300   14.6767 H           1 FA4       0.0317
     64 H31        32.2599   12.7760   15.4054 H           1 FA4       0.0317
     65 H32        32.7607   13.5528   12.4796 H           1 FA4       0.0813
     66 H33        32.3259   14.6838   13.7684 H           1 FA4       0.0813
     67 H34        30.4464   14.0935   12.4980 H           1 FA4       0.1994
     68 H35        30.2670   13.4838   14.0413 H           1 FA4       0.1994
     69 H36        30.6750   12.4671   12.7807 H           1 FA4       0.1994
     70 H37        22.1071    3.4853   15.6652 H           1 FA4       0.0839
     71 H38        20.7192    4.4230   15.1685 H           1 FA4       0.0839
     72 H39        22.9532    5.4557   15.4294 H           1 FA4       0.2664
     73 H40        23.7592    7.4318   13.0546 H           1 FA4       0.2615
     74 H41        23.8894    7.0568   14.6223 H           1 FA4       0.2615
     75 H42        21.6571    5.0055   12.2905 H           1 FA4       0.2615
     76 H43        22.4960    6.2734   11.7482 H           1 FA4       0.2615
     77 H44        34.0136    5.8749   11.8170 H           1 FA4       0.2490
@<TRIPOS>BOND
     1     1     2  ar
     2     1     6  ar
     3     2     3  ar
     4     3     4  ar
     5     3     7   1
     6     4     5  ar
     7     4    27   1
     8     5     6  ar
     9     7     8   1
    10     8     9   1
    11     9    10   1
    12    10    11   1
    13    11    12   1
    14    12    13   1
    15    13    14   1
    16    14    15   1
    17    15    16   1
    18    16    17  am
    19    16    19   2
    20    17    18   1
    21    18    20   1
    22    18    21   1
    23    20    23   1
    24    21    22  am
    25    21    33   2
    26    22    32   1
    27    23    24   1
    28    24    25   1
    29    25    26   1
    30    27    28   1
    31    28    29  ar
    32    29    30  ar
    33    29    31  ar
    34     1    34   1
    35     2    35   1
    36     5    36   1
    37     6    37   1
    38     7    38   1
    39     7    39   1
    40     8    40   1
    41     8    41   1
    42     9    42   1
    43     9    43   1
    44    10    44   1
    45    10    45   1
    46    11    46   1
    47    11    47   1
    48    12    48   1
    49    12    49   1
    50    13    50   1
    51    13    51   1
    52    14    52   1
    53    14    53   1
    54    15    54   1
    55    15    55   1
    56    17    56   1
    57    18    57   1
    58    20    58   1
    59    20    59   1
    60    22    60   1
    61    23    61   1
    62    23    62   1
    63    24    63   1
    64    24    64   1
    65    25    65   1
    66    25    66   1
    67    26    67   1
    68    26    68   1
    69    26    69   1
    70    27    70   1
    71    27    71   1
    72    28    72   1
    73    30    73   1
    74    30    74   1
    75    31    75   1
    76    31    76   1
    77    32    77   1
@<TRIPOS>SUBSTRUCTURE
     1  FA4      1

