@<TRIPOS>MOLECULE
2d1o_ligand_023
    77    77
SMALL
GAST_HUCK
****
This file was generated by PARSER (from files_GN.cpp)

@<TRIPOS>ATOM
      1 C1         28.8115    7.4087   16.8992 C.ar        1 FA4      -0.0755
      2 C2         28.7596    6.6334   15.7298 C.ar        1 FA4      -0.0668
      3 C3         29.8087    5.7461   15.3810 C.ar        1 FA4      -0.0377
      4 C4         30.9923    5.7477   16.1828 C.ar        1 FA4      -0.0050
      5 C5         31.0056    6.4974   17.3856 C.ar        1 FA4      -0.0635
      6 C6         29.9231    7.3123   17.7521 C.ar        1 FA4      -0.0754
      7 C7         29.6121    4.8550   14.1842 C.3         1 FA4      -0.0215
      8 C8         29.2645    3.3786   14.5411 C.3         1 FA4      -0.0443
      9 C9         27.9199    3.1624   15.3141 C.3         1 FA4      -0.0514
     10 C10        26.6781    2.7638   14.4597 C.3         1 FA4      -0.0529
     11 C11        26.3670    3.5993   13.1872 C.3         1 FA4      -0.0530
     12 C12        25.9606    5.0851   13.4356 C.3         1 FA4      -0.0529
     13 C13        24.4342    5.3476   13.4722 C.3         1 FA4      -0.0510
     14 C14        23.7125    5.2471   12.0936 C.3         1 FA4      -0.0361
     15 C15        22.1501    5.2962   12.1103 C.3         1 FA4       0.0374
     16 C16        21.5083    5.1239   13.4007 C.2         1 FA4       0.1782
     17 N17        20.9565    3.9593   13.7296 N.am        1 FA4      -0.2657
     18 C18        20.3716    3.5963   14.9888 C.3         1 FA4       0.1325
     19 O19        21.5224    6.0664   14.1828 O.2         1 FA4      -0.3969
     20 C20        18.9619    4.2583   15.1794 C.3         1 FA4      -0.0123
     21 C21        21.3119    3.8271   16.0816 C.2         1 FA4       0.2244
     22 N22        22.5645    3.3971   15.9838 N.am        1 FA4      -0.1623
     23 C23        17.8377    3.8308   14.1953 C.3         1 FA4      -0.0440
     24 C24        18.0183    4.0133   12.6586 C.3         1 FA4      -0.0124
     25 C25        18.2650    5.4358   12.0840 C.3         1 FA4      -0.0354
     26 N26        17.7614    6.5308   12.9160 N.4         1 FA4       0.2185
     27 C27        32.2564    5.0531   15.7776 C.3         1 FA4       0.0939
     28 N28        32.7662    5.4846   14.5494 N.pl3       1 FA4      -0.2620
     29 C29        33.1260    6.6623   14.1914 C.cat       1 FA4       0.2900
     30 N30        33.5640    6.7922   12.9991 N.pl3       1 FA4      -0.2847
     31 N31        33.0795    7.7075   14.9236 N.pl3       1 FA4      -0.2847
     32 O32        23.4880    3.6660   16.8648 O.3         1 FA4      -0.2717
     33 O33        20.9842    4.4393   17.0975 O.2         1 FA4      -0.3944
     34 H1         28.0439    8.0384   17.1353 H           1 FA4       0.0541
     35 H2         27.9235    6.7144   15.1456 H           1 FA4       0.0537
     36 H3         31.8254    6.4880   17.9969 H           1 FA4       0.0538
     37 H4         29.9536    7.8577   18.6168 H           1 FA4       0.0541
     38 H5         30.5097    4.8598   13.5682 H           1 FA4       0.0411
     39 H6         28.8317    5.2461   13.5297 H           1 FA4       0.0411
     40 H7         30.0664    2.9680   15.1561 H           1 FA4       0.0286
     41 H8         29.2526    2.7837   13.6217 H           1 FA4       0.0286
     42 H9         27.6779    4.0447   15.9114 H           1 FA4       0.0267
     43 H10        28.0720    2.3493   16.0317 H           1 FA4       0.0267
     44 H11        25.7953    2.7738   15.1085 H           1 FA4       0.0265
     45 H12        26.8129    1.7284   14.1365 H           1 FA4       0.0265
     46 H13        25.5629    3.0833   12.6514 H           1 FA4       0.0265
     47 H14        27.2411    3.5768   12.5313 H           1 FA4       0.0265
     48 H15        26.4129    5.7138   12.6640 H           1 FA4       0.0265
     49 H16        26.3707    5.4124   14.3941 H           1 FA4       0.0265
     50 H17        24.2774    6.3568   13.8665 H           1 FA4       0.0267
     51 H18        24.0010    4.6427   14.1836 H           1 FA4       0.0267
     52 H19        24.0160    4.3197   11.6037 H           1 FA4       0.0290
     53 H20        24.0883    6.0662   11.4716 H           1 FA4       0.0290
     54 H21        21.7764    4.5352   11.4180 H           1 FA4       0.0502
     55 H22        21.8207    6.2579   11.7055 H           1 FA4       0.0502
     56 H23        21.0059    3.2558   13.0618 H           1 FA4       0.1882
     57 H24        20.2035    2.5170   14.9467 H           1 FA4       0.0799
     58 H25        19.0574    5.3468   15.1717 H           1 FA4       0.0312
     59 H26        18.6001    3.9757   16.1741 H           1 FA4       0.0312
     60 H27        22.8177    2.8947   15.1946 H           1 FA4       0.2217
     61 H28        16.9302    4.3703   14.4870 H           1 FA4       0.0269
     62 H29        17.6243    2.7717   14.3689 H           1 FA4       0.0269
     63 H30        17.1047    3.6312   12.1933 H           1 FA4       0.0317
     64 H31        18.8315    3.3678   12.3159 H           1 FA4       0.0317
     65 H32        17.7869    5.5108   11.1030 H           1 FA4       0.0813
     66 H33        19.3271    5.6107   11.9378 H           1 FA4       0.0813
     67 H34        17.9697    7.4167   12.4465 H           1 FA4       0.1994
     68 H35        18.2345    6.5188   13.8214 H           1 FA4       0.1994
     69 H36        16.7527    6.4390   13.0512 H           1 FA4       0.1994
     70 H37        32.0657    3.9824   15.7173 H           1 FA4       0.0839
     71 H38        33.0453    5.1773   16.5211 H           1 FA4       0.0839
     72 H39        32.8593    4.8214   13.8960 H           1 FA4       0.2664
     73 H40        33.8389    7.6282   12.6847 H           1 FA4       0.2615
     74 H41        33.6120    6.0435   12.4398 H           1 FA4       0.2615
     75 H42        32.7568    7.6628   15.7996 H           1 FA4       0.2615
     76 H43        33.3612    8.5318   14.5792 H           1 FA4       0.2615
     77 H44        23.9727    4.4365   16.4966 H           1 FA4       0.2490
@<TRIPOS>BOND
     1     1     2  ar
     2     1     6  ar
     3     2     3  ar
     4     3     4  ar
     5     3     7   1
     6     4     5  ar
     7     4    27   1
     8     5     6  ar
     9     7     8   1
    10     8     9   1
    11     9    10   1
    12    10    11   1
    13    11    12   1
    14    12    13   1
    15    13    14   1
    16    14    15   1
    17    15    16   1
    18    16    17  am
    19    16    19   2
    20    17    18   1
    21    18    20   1
    22    18    21   1
    23    20    23   1
    24    21    22  am
    25    21    33   2
    26    22    32   1
    27    23    24   1
    28    24    25   1
    29    25    26   1
    30    27    28   1
    31    28    29  ar
    32    29    30  ar
    33    29    31  ar
    34     1    34   1
    35     2    35   1
    36     5    36   1
    37     6    37   1
    38     7    38   1
    39     7    39   1
    40     8    40   1
    41     8    41   1
    42     9    42   1
    43     9    43   1
    44    10    44   1
    45    10    45   1
    46    11    46   1
    47    11    47   1
    48    12    48   1
    49    12    49   1
    50    13    50   1
    51    13    51   1
    52    14    52   1
    53    14    53   1
    54    15    54   1
    55    15    55   1
    56    17    56   1
    57    18    57   1
    58    20    58   1
    59    20    59   1
    60    22    60   1
    61    23    61   1
    62    23    62   1
    63    24    63   1
    64    24    64   1
    65    25    65   1
    66    25    66   1
    67    26    67   1
    68    26    68   1
    69    26    69   1
    70    27    70   1
    71    27    71   1
    72    28    72   1
    73    30    73   1
    74    30    74   1
    75    31    75   1
    76    31    76   1
    77    32    77   1
@<TRIPOS>SUBSTRUCTURE
     1  FA4      1

