@<TRIPOS>MOLECULE
2d1o_ligand_083
    77    77
SMALL
GAST_HUCK
****
This file was generated by PARSER (from files_GN.cpp)

@<TRIPOS>ATOM
      1 C1         26.7546    5.8280   13.9987 C.ar        1 FA4      -0.0755
      2 C2         26.2134    5.0005   14.9901 C.ar        1 FA4      -0.0668
      3 C3         25.2255    4.0221   14.7083 C.ar        1 FA4      -0.0377
      4 C4         24.7722    3.9025   13.3561 C.ar        1 FA4      -0.0050
      5 C5         25.3283    4.7480   12.3649 C.ar        1 FA4      -0.0635
      6 C6         26.3120    5.6920   12.6753 C.ar        1 FA4      -0.0754
      7 C7         24.7445    3.1512   15.8272 C.3         1 FA4      -0.0215
      8 C8         25.1657    1.6482   15.8425 C.3         1 FA4      -0.0443
      9 C9         26.6267    1.2630   15.4384 C.3         1 FA4      -0.0514
     10 C10        27.7692    2.3196   15.5969 C.3         1 FA4      -0.0529
     11 C11        28.3976    2.7794   14.2408 C.3         1 FA4      -0.0530
     12 C12        29.7932    3.4603   14.3183 C.3         1 FA4      -0.0529
     13 C13        29.9621    4.6635   15.3020 C.3         1 FA4      -0.0510
     14 C14        31.2108    4.5463   16.2211 C.3         1 FA4      -0.0361
     15 C15        32.5762    4.6502   15.4764 C.3         1 FA4       0.0374
     16 C16        33.0595    6.0090   15.2956 C.2         1 FA4       0.1782
     17 N17        33.3549    6.4759   14.0835 N.am        1 FA4      -0.2657
     18 C18        33.9822    7.7407   13.7999 C.3         1 FA4       0.1325
     19 O19        33.2863    6.6677   16.3036 O.2         1 FA4      -0.3969
     20 C20        32.9953    8.9407   13.9813 C.3         1 FA4      -0.0123
     21 C21        34.5598    7.6828   12.4646 C.2         1 FA4       0.2244
     22 N22        35.8701    7.7570   12.2881 N.am        1 FA4      -0.1623
     23 C23        33.6771   10.3411   14.0509 C.3         1 FA4      -0.0440
     24 C24        32.8463   11.4075   14.8263 C.3         1 FA4      -0.0124
     25 C25        31.4921   11.7968   14.1791 C.3         1 FA4      -0.0354
     26 N26        31.5864   13.0018   13.3466 N.4         1 FA4       0.2185
     27 C27        23.7878    2.8837   12.9025 C.3         1 FA4       0.0939
     28 N28        24.4786    1.7154   12.5791 N.pl3       1 FA4      -0.2620
     29 C29        24.0017    0.5356   12.4330 C.cat       1 FA4       0.2900
     30 N30        22.7651    0.2317   12.5800 N.pl3       1 FA4      -0.2847
     31 N31        24.8279   -0.3916   12.1277 N.pl3       1 FA4      -0.2847
     32 O32        36.4340    7.6516   11.1165 O.3         1 FA4      -0.2717
     33 O33        33.8304    7.5118   11.4947 O.2         1 FA4      -0.3944
     34 H1         27.5025    6.4914   14.2225 H           1 FA4       0.0541
     35 H2         26.5627    5.1142   15.9419 H           1 FA4       0.0537
     36 H3         25.0409    4.6559   11.3836 H           1 FA4       0.0538
     37 H4         26.7135    6.2817   11.9474 H           1 FA4       0.0541
     38 H5         23.6446    3.2026   15.8378 H           1 FA4       0.0411
     39 H6         25.0510    3.5649   16.7836 H           1 FA4       0.0411
     40 H7         24.4897    1.0815   15.1929 H           1 FA4       0.0286
     41 H8         24.9576    1.2733   16.8496 H           1 FA4       0.0286
     42 H9         26.5988    0.9103   14.4065 H           1 FA4       0.0267
     43 H10        26.8860    0.3947   16.0614 H           1 FA4       0.0267
     44 H11        28.5709    1.8755   16.1987 H           1 FA4       0.0265
     45 H12        27.3758    3.1913   16.1407 H           1 FA4       0.0265
     46 H13        27.6879    3.4437   13.7376 H           1 FA4       0.0265
     47 H14        28.5090    1.8884   13.6134 H           1 FA4       0.0265
     48 H15        30.0357    3.8070   13.3117 H           1 FA4       0.0265
     49 H16        30.5195    2.6800   14.5540 H           1 FA4       0.0265
     50 H17        29.0860    4.7435   15.9494 H           1 FA4       0.0267
     51 H18        30.0162    5.5949   14.7344 H           1 FA4       0.0267
     52 H19        31.1663    3.5826   16.7394 H           1 FA4       0.0290
     53 H20        31.1520    5.3190   16.9958 H           1 FA4       0.0290
     54 H21        32.5072    4.1264   14.5171 H           1 FA4       0.0502
     55 H22        33.3184    4.1064   16.0677 H           1 FA4       0.0502
     56 H23        33.2214    5.8652   13.3403 H           1 FA4       0.1882
     57 H24        34.7955    7.8674   14.5246 H           1 FA4       0.0799
     58 H25        32.4443    8.7886   14.9105 H           1 FA4       0.0312
     59 H26        32.2617    8.9395   13.1723 H           1 FA4       0.0312
     60 H27        36.4373    7.8869   13.0626 H           1 FA4       0.2217
     61 H28        33.8843   10.7042   13.0417 H           1 FA4       0.0269
     62 H29        34.6382   10.2444   14.5672 H           1 FA4       0.0269
     63 H30        33.4515   12.3146   14.9374 H           1 FA4       0.0317
     64 H31        32.6564   11.0299   15.8365 H           1 FA4       0.0317
     65 H32        30.7566   11.9958   14.9636 H           1 FA4       0.0813
     66 H33        31.1137   10.9778   13.5665 H           1 FA4       0.0813
     67 H34        30.6871   13.1602   12.8870 H           1 FA4       0.1994
     68 H35        32.3156   12.8803   12.6441 H           1 FA4       0.1994
     69 H36        31.8094   13.8054   13.9340 H           1 FA4       0.1994
     70 H37        23.2433    3.2360   12.0209 H           1 FA4       0.0839
     71 H38        23.0432    2.7022   13.6805 H           1 FA4       0.0839
     72 H39        25.4033    1.7911   12.4647 H           1 FA4       0.2664
     73 H40        22.4868   -0.6545   12.4766 H           1 FA4       0.2615
     74 H41        22.1365    0.8878   12.8015 H           1 FA4       0.2615
     75 H42        25.7387   -0.1888   12.0299 H           1 FA4       0.2615
     76 H43        24.5297   -1.2670   11.9954 H           1 FA4       0.2615
     77 H44        36.6236    8.5781   10.8451 H           1 FA4       0.2490
@<TRIPOS>BOND
     1     1     2  ar
     2     1     6  ar
     3     2     3  ar
     4     3     4  ar
     5     3     7   1
     6     4     5  ar
     7     4    27   1
     8     5     6  ar
     9     7     8   1
    10     8     9   1
    11     9    10   1
    12    10    11   1
    13    11    12   1
    14    12    13   1
    15    13    14   1
    16    14    15   1
    17    15    16   1
    18    16    17  am
    19    16    19   2
    20    17    18   1
    21    18    20   1
    22    18    21   1
    23    20    23   1
    24    21    22  am
    25    21    33   2
    26    22    32   1
    27    23    24   1
    28    24    25   1
    29    25    26   1
    30    27    28   1
    31    28    29  ar
    32    29    30  ar
    33    29    31  ar
    34     1    34   1
    35     2    35   1
    36     5    36   1
    37     6    37   1
    38     7    38   1
    39     7    39   1
    40     8    40   1
    41     8    41   1
    42     9    42   1
    43     9    43   1
    44    10    44   1
    45    10    45   1
    46    11    46   1
    47    11    47   1
    48    12    48   1
    49    12    49   1
    50    13    50   1
    51    13    51   1
    52    14    52   1
    53    14    53   1
    54    15    54   1
    55    15    55   1
    56    17    56   1
    57    18    57   1
    58    20    58   1
    59    20    59   1
    60    22    60   1
    61    23    61   1
    62    23    62   1
    63    24    63   1
    64    24    64   1
    65    25    65   1
    66    25    66   1
    67    26    67   1
    68    26    68   1
    69    26    69   1
    70    27    70   1
    71    27    71   1
    72    28    72   1
    73    30    73   1
    74    30    74   1
    75    31    75   1
    76    31    76   1
    77    32    77   1
@<TRIPOS>SUBSTRUCTURE
     1  FA4      1

