@<TRIPOS>MOLECULE
2d1o_ligand_026
    77    77
SMALL
GAST_HUCK
****
This file was generated by PARSER (from files_GN.cpp)

@<TRIPOS>ATOM
      1 C1         19.7199    4.5321   17.7163 C.ar        1 FA4      -0.0755
      2 C2         20.7855    4.5442   16.8000 C.ar        1 FA4      -0.0668
      3 C3         20.9941    5.6329   15.9117 C.ar        1 FA4      -0.0377
      4 C4         20.0668    6.7224   15.9457 C.ar        1 FA4      -0.0050
      5 C5         19.0144    6.7014   16.8978 C.ar        1 FA4      -0.0635
      6 C6         18.8395    5.6189   17.7739 C.ar        1 FA4      -0.0754
      7 C7         22.1711    5.5637   14.9949 C.3         1 FA4      -0.0215
      8 C8         21.8659    4.8933   13.6248 C.3         1 FA4      -0.0443
      9 C9         23.0185    4.0590   13.0080 C.3         1 FA4      -0.0514
     10 C10        24.2650    4.8115   12.4513 C.3         1 FA4      -0.0529
     11 C11        25.4233    5.1416   13.4529 C.3         1 FA4      -0.0530
     12 C12        26.7763    5.4403   12.7274 C.3         1 FA4      -0.0529
     13 C13        27.9367    6.0135   13.5807 C.3         1 FA4      -0.0510
     14 C14        27.9008    5.6579   15.1026 C.3         1 FA4      -0.0361
     15 C15        28.9835    6.3674   15.9751 C.3         1 FA4       0.0374
     16 C16        30.3666    6.3006   15.5125 C.2         1 FA4       0.1782
     17 N17        31.1636    7.3672   15.6133 N.am        1 FA4      -0.2657
     18 C18        32.5296    7.5249   15.1893 C.3         1 FA4       0.1325
     19 O19        30.7965    5.2159   15.1250 O.2         1 FA4      -0.3969
     20 C20        33.0754    8.8939   15.7444 C.3         1 FA4      -0.0123
     21 C21        32.6184    7.4592   13.7378 C.2         1 FA4       0.2244
     22 N22        33.6252    6.8529   13.1372 N.am        1 FA4      -0.1623
     23 C23        34.1943    9.6426   14.9648 C.3         1 FA4      -0.0440
     24 C24        35.6206    9.6811   15.5845 C.3         1 FA4      -0.0124
     25 C25        36.5963    8.5923   15.0555 C.3         1 FA4      -0.0354
     26 N26        37.9943    9.0331   15.2015 N.4         1 FA4       0.2185
     27 C27        20.1253    7.9179   15.0558 C.3         1 FA4       0.0939
     28 N28        20.5213    9.0398   15.7929 N.pl3       1 FA4      -0.2620
     29 C29        20.4626   10.2687   15.4340 C.cat       1 FA4       0.2900
     30 N30        20.8618   11.1445   16.2745 N.pl3       1 FA4      -0.2847
     31 N31        20.0202   10.6864   14.3032 N.pl3       1 FA4      -0.2847
     32 O32        33.6971    6.7685   11.8436 O.3         1 FA4      -0.2717
     33 O33        31.7504    7.9982   13.0673 O.2         1 FA4      -0.3944
     34 H1         19.5849    3.7355   18.3459 H           1 FA4       0.0541
     35 H2         21.4181    3.7369   16.7864 H           1 FA4       0.0537
     36 H3         18.3475    7.4762   16.9524 H           1 FA4       0.0538
     37 H4         18.0696    5.6227   18.4466 H           1 FA4       0.0541
     38 H5         22.9816    5.0105   15.4844 H           1 FA4       0.0411
     39 H6         22.5666    6.5706   14.8274 H           1 FA4       0.0411
     40 H7         21.5475    5.6546   12.9026 H           1 FA4       0.0286
     41 H8         21.0161    4.2131   13.7514 H           1 FA4       0.0286
     42 H9         22.5799    3.5122   12.1599 H           1 FA4       0.0267
     43 H10        23.3410    3.2976   13.7259 H           1 FA4       0.0267
     44 H11        23.9328    5.7385   11.9739 H           1 FA4       0.0265
     45 H12        24.6799    4.1744   11.6632 H           1 FA4       0.0265
     46 H13        25.5611    4.2877   14.1303 H           1 FA4       0.0265
     47 H14        25.1324    6.0073   14.0485 H           1 FA4       0.0265
     48 H15        26.5761    6.1672   11.9332 H           1 FA4       0.0265
     49 H16        27.1132    4.5178   12.2465 H           1 FA4       0.0265
     50 H17        27.9482    7.1010   13.4769 H           1 FA4       0.0267
     51 H18        28.8755    5.6325   13.1692 H           1 FA4       0.0267
     52 H19        27.9971    4.5720   15.2208 H           1 FA4       0.0290
     53 H20        26.9193    5.9535   15.4921 H           1 FA4       0.0290
     54 H21        28.9449    5.9120   16.9782 H           1 FA4       0.0502
     55 H22        28.6757    7.4161   16.0913 H           1 FA4       0.0502
     56 H23        30.7519    8.1496   16.0134 H           1 FA4       0.1882
     57 H24        33.1218    6.7274   15.6426 H           1 FA4       0.0799
     58 H25        33.4293    8.7255   16.7719 H           1 FA4       0.0312
     59 H26        32.2190    9.5763   15.8180 H           1 FA4       0.0312
     60 H27        34.3228    6.4406   13.6710 H           1 FA4       0.2217
     61 H28        33.8618   10.6881   14.8779 H           1 FA4       0.0269
     62 H29        34.2484    9.2528   13.9392 H           1 FA4       0.0269
     63 H30        35.5483    9.6007   16.6760 H           1 FA4       0.0317
     64 H31        36.0501   10.6598   15.3443 H           1 FA4       0.0317
     65 H32        36.4239    8.3925   13.9963 H           1 FA4       0.0813
     66 H33        36.4784    7.6731   15.6282 H           1 FA4       0.0813
     67 H34        38.6283    8.2595   14.9788 H           1 FA4       0.1994
     68 H35        38.1689    9.3483   16.1575 H           1 FA4       0.1994
     69 H36        38.1765    9.8120   14.5567 H           1 FA4       0.1994
     70 H37        19.1304    8.0673   14.6133 H           1 FA4       0.0839
     71 H38        20.8279    7.7984   14.2309 H           1 FA4       0.0839
     72 H39        20.8317    8.8843   16.6602 H           1 FA4       0.2664
     73 H40        20.8427   12.0531   16.0545 H           1 FA4       0.2615
     74 H41        21.1849   10.8758   17.1097 H           1 FA4       0.2615
     75 H42        19.7293   10.0790   13.6616 H           1 FA4       0.2615
     76 H43        20.0322   11.5998   14.1051 H           1 FA4       0.2615
     77 H44        34.0644    5.8684   11.6723 H           1 FA4       0.2490
@<TRIPOS>BOND
     1     1     2  ar
     2     1     6  ar
     3     2     3  ar
     4     3     4  ar
     5     3     7   1
     6     4     5  ar
     7     4    27   1
     8     5     6  ar
     9     7     8   1
    10     8     9   1
    11     9    10   1
    12    10    11   1
    13    11    12   1
    14    12    13   1
    15    13    14   1
    16    14    15   1
    17    15    16   1
    18    16    17  am
    19    16    19   2
    20    17    18   1
    21    18    20   1
    22    18    21   1
    23    20    23   1
    24    21    22  am
    25    21    33   2
    26    22    32   1
    27    23    24   1
    28    24    25   1
    29    25    26   1
    30    27    28   1
    31    28    29  ar
    32    29    30  ar
    33    29    31  ar
    34     1    34   1
    35     2    35   1
    36     5    36   1
    37     6    37   1
    38     7    38   1
    39     7    39   1
    40     8    40   1
    41     8    41   1
    42     9    42   1
    43     9    43   1
    44    10    44   1
    45    10    45   1
    46    11    46   1
    47    11    47   1
    48    12    48   1
    49    12    49   1
    50    13    50   1
    51    13    51   1
    52    14    52   1
    53    14    53   1
    54    15    54   1
    55    15    55   1
    56    17    56   1
    57    18    57   1
    58    20    58   1
    59    20    59   1
    60    22    60   1
    61    23    61   1
    62    23    62   1
    63    24    63   1
    64    24    64   1
    65    25    65   1
    66    25    66   1
    67    26    67   1
    68    26    68   1
    69    26    69   1
    70    27    70   1
    71    27    71   1
    72    28    72   1
    73    30    73   1
    74    30    74   1
    75    31    75   1
    76    31    76   1
    77    32    77   1
@<TRIPOS>SUBSTRUCTURE
     1  FA4      1

