@<TRIPOS>MOLECULE
2d1o_ligand_054
    77    77
SMALL
GAST_HUCK
****
This file was generated by PARSER (from files_GN.cpp)

@<TRIPOS>ATOM
      1 C1         24.9919    5.4148   12.7857 C.ar        1 FA4      -0.0755
      2 C2         24.6021    4.6961   13.9242 C.ar        1 FA4      -0.0668
      3 C3         25.5487    4.0332   14.7425 C.ar        1 FA4      -0.0377
      4 C4         26.9449    4.2092   14.4654 C.ar        1 FA4      -0.0050
      5 C5         27.3077    5.0724   13.3944 C.ar        1 FA4      -0.0635
      6 C6         26.3491    5.6311   12.5378 C.ar        1 FA4      -0.0754
      7 C7         25.0154    3.1895   15.8591 C.3         1 FA4      -0.0215
      8 C8         24.7793    1.6955   15.4761 C.3         1 FA4      -0.0443
      9 C9         23.4112    1.3221   14.8209 C.3         1 FA4      -0.0514
     10 C10        23.2364    1.6978   13.3206 C.3         1 FA4      -0.0529
     11 C11        22.3323    0.7613   12.4736 C.3         1 FA4      -0.0530
     12 C12        20.8925    0.4661   12.9823 C.3         1 FA4      -0.0529
     13 C13        20.0844    1.6967   13.4804 C.3         1 FA4      -0.0510
     14 C14        18.5976    1.3750   13.8206 C.3         1 FA4      -0.0361
     15 C15        17.9546    2.3139   14.8810 C.3         1 FA4       0.0374
     16 C16        18.2064    3.7349   14.6722 C.2         1 FA4       0.1782
     17 N17        18.9463    4.4045   15.5478 N.am        1 FA4      -0.2657
     18 C18        19.3632    5.7811   15.4765 C.3         1 FA4       0.1325
     19 O19        17.7445    4.2657   13.6707 O.2         1 FA4      -0.3969
     20 C20        20.9222    5.8194   15.4973 C.3         1 FA4      -0.0123
     21 C21        18.7310    6.5168   16.5663 C.2         1 FA4       0.2244
     22 N22        18.9248    6.1749   17.8308 N.am        1 FA4      -0.1623
     23 C23        21.6033    7.2147   15.6105 C.3         1 FA4      -0.0440
     24 C24        21.1637    8.3297   14.6202 C.3         1 FA4      -0.0124
     25 C25        21.2969    8.0133   13.1072 C.3         1 FA4      -0.0354
     26 N26        22.5233    7.3003   12.7511 N.4         1 FA4       0.2185
     27 C27        28.0581    3.6034   15.2704 C.3         1 FA4       0.0939
     28 N28        29.1416    3.1639   14.4877 N.pl3       1 FA4      -0.2620
     29 C29        30.2125    3.8052   14.1655 C.cat       1 FA4       0.2900
     30 N30        31.0500    3.2218   13.3962 N.pl3       1 FA4      -0.2847
     31 N31        30.4983    4.9972   14.5222 N.pl3       1 FA4      -0.2847
     32 O32        18.3663    6.8209   18.8215 O.3         1 FA4      -0.2717
     33 O33        18.0027    7.4649   16.3019 O.2         1 FA4      -0.3944
     34 H1         24.2954    5.8101   12.1517 H           1 FA4       0.0541
     35 H2         23.6030    4.6399   14.1302 H           1 FA4       0.0537
     36 H3         28.2888    5.2876   13.2018 H           1 FA4       0.0538
     37 H4         26.6343    6.2019   11.7424 H           1 FA4       0.0541
     38 H5         24.0843    3.6002   16.2623 H           1 FA4       0.0411
     39 H6         25.7198    3.2344   16.6918 H           1 FA4       0.0411
     40 H7         24.8480    1.1099   16.4004 H           1 FA4       0.0286
     41 H8         25.5893    1.3478   14.8289 H           1 FA4       0.0286
     42 H9         22.6006    1.7692   15.4038 H           1 FA4       0.0267
     43 H10        23.3103    0.2386   14.9076 H           1 FA4       0.0267
     44 H11        24.2231    1.7159   12.8444 H           1 FA4       0.0265
     45 H12        22.8137    2.6954   13.2443 H           1 FA4       0.0265
     46 H13        22.8554   -0.1908   12.3497 H           1 FA4       0.0265
     47 H14        22.2479    1.2126   11.4803 H           1 FA4       0.0265
     48 H15        20.9418   -0.2692   13.7901 H           1 FA4       0.0265
     49 H16        20.3464    0.0052   12.1527 H           1 FA4       0.0265
     50 H17        20.0989    2.4754   12.7106 H           1 FA4       0.0267
     51 H18        20.5847    2.0929   14.3687 H           1 FA4       0.0267
     52 H19        18.5205    0.3551   14.2071 H           1 FA4       0.0290
     53 H20        18.0082    1.4142   12.8990 H           1 FA4       0.0290
     54 H21        18.3204    2.0071   15.8669 H           1 FA4       0.0502
     55 H22        16.8711    2.1552   14.8798 H           1 FA4       0.0502
     56 H23        19.2779    3.9027   16.3106 H           1 FA4       0.1882
     57 H24        19.0463    6.2195   14.5220 H           1 FA4       0.0799
     58 H25        21.2854    5.3334   14.5898 H           1 FA4       0.0312
     59 H26        21.2798    5.2187   16.3401 H           1 FA4       0.0312
     60 H27        19.4980    5.4159   18.0303 H           1 FA4       0.2217
     61 H28        22.6807    7.0698   15.4953 H           1 FA4       0.0269
     62 H29        21.4482    7.5920   16.6286 H           1 FA4       0.0269
     63 H30        21.7701    9.2148   14.8379 H           1 FA4       0.0317
     64 H31        20.1231    8.5979   14.8269 H           1 FA4       0.0317
     65 H32        21.2802    8.9554   12.5468 H           1 FA4       0.0813
     66 H33        20.4503    7.4063   12.7796 H           1 FA4       0.0813
     67 H34        22.5250    7.1310   11.7403 H           1 FA4       0.1994
     68 H35        22.5387    6.4070   13.2435 H           1 FA4       0.1994
     69 H36        23.3456    7.8497   13.0100 H           1 FA4       0.1994
     70 H37        27.7156    2.7159   15.7994 H           1 FA4       0.0839
     71 H38        28.3662    4.3224   16.0304 H           1 FA4       0.0839
     72 H39        29.0530    2.3097   14.1094 H           1 FA4       0.2664
     73 H40        31.8257    3.6692   13.1275 H           1 FA4       0.2615
     74 H41        30.8830    2.3577   13.0863 H           1 FA4       0.2615
     75 H42        29.9116    5.4932   15.0558 H           1 FA4       0.2615
     76 H43        31.2873    5.3963   14.2140 H           1 FA4       0.2615
     77 H44        18.5793    6.2981   19.6219 H           1 FA4       0.2490
@<TRIPOS>BOND
     1     1     2  ar
     2     1     6  ar
     3     2     3  ar
     4     3     4  ar
     5     3     7   1
     6     4     5  ar
     7     4    27   1
     8     5     6  ar
     9     7     8   1
    10     8     9   1
    11     9    10   1
    12    10    11   1
    13    11    12   1
    14    12    13   1
    15    13    14   1
    16    14    15   1
    17    15    16   1
    18    16    17  am
    19    16    19   2
    20    17    18   1
    21    18    20   1
    22    18    21   1
    23    20    23   1
    24    21    22  am
    25    21    33   2
    26    22    32   1
    27    23    24   1
    28    24    25   1
    29    25    26   1
    30    27    28   1
    31    28    29  ar
    32    29    30  ar
    33    29    31  ar
    34     1    34   1
    35     2    35   1
    36     5    36   1
    37     6    37   1
    38     7    38   1
    39     7    39   1
    40     8    40   1
    41     8    41   1
    42     9    42   1
    43     9    43   1
    44    10    44   1
    45    10    45   1
    46    11    46   1
    47    11    47   1
    48    12    48   1
    49    12    49   1
    50    13    50   1
    51    13    51   1
    52    14    52   1
    53    14    53   1
    54    15    54   1
    55    15    55   1
    56    17    56   1
    57    18    57   1
    58    20    58   1
    59    20    59   1
    60    22    60   1
    61    23    61   1
    62    23    62   1
    63    24    63   1
    64    24    64   1
    65    25    65   1
    66    25    66   1
    67    26    67   1
    68    26    68   1
    69    26    69   1
    70    27    70   1
    71    27    71   1
    72    28    72   1
    73    30    73   1
    74    30    74   1
    75    31    75   1
    76    31    76   1
    77    32    77   1
@<TRIPOS>SUBSTRUCTURE
     1  FA4      1

