@<TRIPOS>MOLECULE
2d1o_ligand_013
    77    77
SMALL
GAST_HUCK
****
This file was generated by PARSER (from files_GN.cpp)

@<TRIPOS>ATOM
      1 C1         21.3488    3.3676   15.4971 C.ar        1 FA4      -0.0755
      2 C2         22.6994    3.3956   15.1188 C.ar        1 FA4      -0.0668
      3 C3         23.1090    2.9674   13.8307 C.ar        1 FA4      -0.0377
      4 C4         22.1252    2.5264   12.8900 C.ar        1 FA4      -0.0050
      5 C5         20.7714    2.4769   13.3117 C.ar        1 FA4      -0.0635
      6 C6         20.3844    2.9032   14.5939 C.ar        1 FA4      -0.0754
      7 C7         24.5690    3.0428   13.5237 C.3         1 FA4      -0.0215
      8 C8         24.9610    4.4240   12.9290 C.3         1 FA4      -0.0443
      9 C9         26.4733    4.5821   12.6136 C.3         1 FA4      -0.0514
     10 C10        27.4705    4.3520   13.7817 C.3         1 FA4      -0.0529
     11 C11        27.5233    5.5060   14.8221 C.3         1 FA4      -0.0530
     12 C12        28.6189    5.3164   15.9069 C.3         1 FA4      -0.0529
     13 C13        30.0478    5.7367   15.4589 C.3         1 FA4      -0.0510
     14 C14        31.1634    5.0708   16.3139 C.3         1 FA4      -0.0361
     15 C15        32.5332    4.9737   15.5883 C.3         1 FA4       0.0374
     16 C16        33.1949    6.2508   15.3781 C.2         1 FA4       0.1782
     17 N17        32.9718    6.9488   14.2700 N.am        1 FA4      -0.2657
     18 C18        33.6135    8.1768   13.8820 C.3         1 FA4       0.1325
     19 O19        33.9554    6.6616   16.2464 O.2         1 FA4      -0.3969
     20 C20        32.5955    9.3475   14.0493 C.3         1 FA4      -0.0123
     21 C21        34.1468    7.9908   12.5342 C.2         1 FA4       0.2244
     22 N22        35.3506    7.4703   12.3663 N.am        1 FA4      -0.1623
     23 C23        33.2212   10.7607   13.8779 C.3         1 FA4      -0.0440
     24 C24        32.1753   11.9021   13.9881 C.3         1 FA4      -0.0124
     25 C25        32.6932   13.2560   13.4302 C.3         1 FA4      -0.0354
     26 N26        31.6527   13.9442   12.6585 N.4         1 FA4       0.2185
     27 C27        22.4912    2.0851   11.5022 C.3         1 FA4       0.0939
     28 N28        21.4930    2.1020   10.5167 N.pl3       1 FA4      -0.2620
     29 C29        20.9015    3.1348   10.0384 C.cat       1 FA4       0.2900
     30 N30        20.0287    2.9780    9.1199 N.pl3       1 FA4      -0.2847
     31 N31        21.1244    4.3352   10.4165 N.pl3       1 FA4      -0.2847
     32 O32        35.9164    7.2690   11.1987 O.3         1 FA4      -0.2717
     33 O33        33.4871    8.2980   11.5498 O.2         1 FA4      -0.3944
     34 H1         21.0709    3.6844   16.4292 H           1 FA4       0.0541
     35 H2         23.3861    3.7311   15.8017 H           1 FA4       0.0537
     36 H3         20.0448    2.1285   12.6839 H           1 FA4       0.0538
     37 H4         19.4016    2.8700   14.8733 H           1 FA4       0.0541
     38 H5         24.8643    2.2497   12.8351 H           1 FA4       0.0411
     39 H6         25.1421    2.8668   14.4376 H           1 FA4       0.0411
     40 H7         24.6494    5.2211   13.6096 H           1 FA4       0.0286
     41 H8         24.4203    4.5684   11.9884 H           1 FA4       0.0286
     42 H9         26.6359    5.5872   12.2133 H           1 FA4       0.0267
     43 H10        26.7265    3.8766   11.8174 H           1 FA4       0.0267
     44 H11        28.4595    4.2308   13.3379 H           1 FA4       0.0265
     45 H12        27.2358    3.4131   14.2865 H           1 FA4       0.0265
     46 H13        26.5554    5.5637   15.3290 H           1 FA4       0.0265
     47 H14        27.6930    6.4570   14.3090 H           1 FA4       0.0265
     48 H15        28.6207    4.2667   16.2166 H           1 FA4       0.0265
     49 H16        28.3467    5.9181   16.7787 H           1 FA4       0.0265
     50 H17        30.1374    6.8236   15.5393 H           1 FA4       0.0267
     51 H18        30.1952    5.4666   14.4118 H           1 FA4       0.0267
     52 H19        30.8571    4.0502   16.5683 H           1 FA4       0.0290
     53 H20        31.2743    5.6200   17.2539 H           1 FA4       0.0290
     54 H21        32.3944    4.4643   14.6308 H           1 FA4       0.0502
     55 H22        33.1853    4.3281   16.1819 H           1 FA4       0.0502
     56 H23        32.3079    6.5907   13.6567 H           1 FA4       0.1882
     57 H24        34.4595    8.3969   14.5437 H           1 FA4       0.0799
     58 H25        32.1604    9.2934   15.0512 H           1 FA4       0.0312
     59 H26        31.7820    9.2171   13.3296 H           1 FA4       0.0312
     60 H27        35.8395    7.1978   13.1570 H           1 FA4       0.2217
     61 H28        33.6993   10.8212   12.8970 H           1 FA4       0.0269
     62 H29        33.9914   10.9111   14.6388 H           1 FA4       0.0269
     63 H30        31.8918   12.0339   15.0354 H           1 FA4       0.0317
     64 H31        31.2775   11.6037   13.4420 H           1 FA4       0.0317
     65 H32        33.5438   13.1086   12.7618 H           1 FA4       0.0813
     66 H33        33.0132   13.8988   14.2531 H           1 FA4       0.0813
     67 H34        32.0068   14.8424   12.3250 H           1 FA4       0.1994
     68 H35        30.8303   14.0960   13.2452 H           1 FA4       0.1994
     69 H36        31.4017   13.3580   11.8571 H           1 FA4       0.1994
     70 H37        22.8717    1.0628   11.5688 H           1 FA4       0.0839
     71 H38        23.3026    2.7071   11.1217 H           1 FA4       0.0839
     72 H39        21.2586    1.2760   10.1443 H           1 FA4       0.2664
     73 H40        19.5876    3.7305    8.7804 H           1 FA4       0.2615
     74 H41        19.8215    2.1252    8.7938 H           1 FA4       0.2615
     75 H42        21.7559    4.5190   11.0809 H           1 FA4       0.2615
     76 H43        20.6470    5.0332   10.0215 H           1 FA4       0.2615
     77 H44        35.3933    7.7675   10.5379 H           1 FA4       0.2490
@<TRIPOS>BOND
     1     1     2  ar
     2     1     6  ar
     3     2     3  ar
     4     3     4  ar
     5     3     7   1
     6     4     5  ar
     7     4    27   1
     8     5     6  ar
     9     7     8   1
    10     8     9   1
    11     9    10   1
    12    10    11   1
    13    11    12   1
    14    12    13   1
    15    13    14   1
    16    14    15   1
    17    15    16   1
    18    16    17  am
    19    16    19   2
    20    17    18   1
    21    18    20   1
    22    18    21   1
    23    20    23   1
    24    21    22  am
    25    21    33   2
    26    22    32   1
    27    23    24   1
    28    24    25   1
    29    25    26   1
    30    27    28   1
    31    28    29  ar
    32    29    30  ar
    33    29    31  ar
    34     1    34   1
    35     2    35   1
    36     5    36   1
    37     6    37   1
    38     7    38   1
    39     7    39   1
    40     8    40   1
    41     8    41   1
    42     9    42   1
    43     9    43   1
    44    10    44   1
    45    10    45   1
    46    11    46   1
    47    11    47   1
    48    12    48   1
    49    12    49   1
    50    13    50   1
    51    13    51   1
    52    14    52   1
    53    14    53   1
    54    15    54   1
    55    15    55   1
    56    17    56   1
    57    18    57   1
    58    20    58   1
    59    20    59   1
    60    22    60   1
    61    23    61   1
    62    23    62   1
    63    24    63   1
    64    24    64   1
    65    25    65   1
    66    25    66   1
    67    26    67   1
    68    26    68   1
    69    26    69   1
    70    27    70   1
    71    27    71   1
    72    28    72   1
    73    30    73   1
    74    30    74   1
    75    31    75   1
    76    31    76   1
    77    32    77   1
@<TRIPOS>SUBSTRUCTURE
     1  FA4      1

