@<TRIPOS>MOLECULE
2d1o_ligand_089
    77    77
SMALL
GAST_HUCK
****
This file was generated by PARSER (from files_GN.cpp)

@<TRIPOS>ATOM
      1 C1         26.0815    3.8311   12.4989 C.ar        1 FA4      -0.0755
      2 C2         26.8306    4.9555   12.8811 C.ar        1 FA4      -0.0668
      3 C3         27.8563    4.8766   13.8622 C.ar        1 FA4      -0.0377
      4 C4         28.1283    3.5988   14.4578 C.ar        1 FA4      -0.0050
      5 C5         27.3569    2.4767   14.0520 C.ar        1 FA4      -0.0635
      6 C6         26.3497    2.5871   13.0817 C.ar        1 FA4      -0.0754
      7 C7         28.5934    6.1471   14.1994 C.3         1 FA4      -0.0215
      8 C8         28.5278    6.5284   15.7049 C.3         1 FA4      -0.0443
      9 C9         29.2289    7.8817   16.0329 C.3         1 FA4      -0.0514
     10 C10        30.5642    7.7631   16.8162 C.3         1 FA4      -0.0529
     11 C11        31.0702    9.1520   17.2950 C.3         1 FA4      -0.0530
     12 C12        32.5141    9.1406   17.8716 C.3         1 FA4      -0.0529
     13 C13        32.7497   10.2134   18.9748 C.3         1 FA4      -0.0510
     14 C14        32.5995   11.6977   18.5248 C.3         1 FA4      -0.0361
     15 C15        33.8906   12.3497   17.9428 C.3         1 FA4       0.0374
     16 C16        34.6665   13.0909   18.9325 C.2         1 FA4       0.1782
     17 N17        34.9655   12.5306   20.1015 N.am        1 FA4      -0.2657
     18 C18        35.6153   13.1238   21.2394 C.3         1 FA4       0.1325
     19 O19        34.9999   14.2393   18.6666 O.2         1 FA4      -0.3969
     20 C20        34.8334   14.3411   21.8287 C.3         1 FA4      -0.0123
     21 C21        37.0199   13.4181   20.9683 C.2         1 FA4       0.2244
     22 N22        37.9601   12.5426   21.2888 N.am        1 FA4      -0.1623
     23 C23        33.7040   13.9196   22.8150 C.3         1 FA4      -0.0440
     24 C24        32.6199   15.0019   23.0703 C.3         1 FA4      -0.0124
     25 C25        31.7047   15.3181   21.8647 C.3         1 FA4      -0.0354
     26 N26        30.6598   14.2958   21.6834 N.4         1 FA4       0.2185
     27 C27        29.1352    3.3523   15.5377 C.3         1 FA4       0.0939
     28 N28        30.3235    4.0909   15.4416 N.pl3       1 FA4      -0.2620
     29 C29        31.1822    4.0722   14.4904 C.cat       1 FA4       0.2900
     30 N30        32.2004    4.8337   14.5870 N.pl3       1 FA4      -0.2847
     31 N31        31.0806    3.3536   13.4380 N.pl3       1 FA4      -0.2847
     32 O32        39.2285   12.7606   21.0768 O.3         1 FA4      -0.2717
     33 O33        37.3327   14.4691   20.4271 O.2         1 FA4      -0.3944
     34 H1         25.3328    3.9209   11.8113 H           1 FA4       0.0541
     35 H2         26.6042    5.8470   12.4335 H           1 FA4       0.0537
     36 H3         27.5116    1.5548   14.4747 H           1 FA4       0.0538
     37 H4         25.7984    1.7660   12.8206 H           1 FA4       0.0541
     38 H5         28.1635    6.9806   13.6369 H           1 FA4       0.0411
     39 H6         29.6261    6.0762   13.8652 H           1 FA4       0.0411
     40 H7         28.9595    5.7424   16.3264 H           1 FA4       0.0286
     41 H8         27.4694    6.6132   15.9659 H           1 FA4       0.0286
     42 H9         28.5304    8.4859   16.6294 H           1 FA4       0.0267
     43 H10        29.4349    8.4364   15.1103 H           1 FA4       0.0267
     44 H11        31.3183    7.2970   16.1754 H           1 FA4       0.0265
     45 H12        30.4132    7.1203   17.6914 H           1 FA4       0.0265
     46 H13        30.3831    9.5117   18.0714 H           1 FA4       0.0265
     47 H14        31.0337    9.8601   16.4654 H           1 FA4       0.0265
     48 H15        33.2330    9.2757   17.0631 H           1 FA4       0.0265
     49 H16        32.7051    8.1614   18.3153 H           1 FA4       0.0265
     50 H17        33.7552   10.0616   19.3806 H           1 FA4       0.0267
     51 H18        32.0568   10.0144   19.7962 H           1 FA4       0.0267
     52 H19        32.2477   12.2810   19.3815 H           1 FA4       0.0290
     53 H20        31.8039   11.7655   17.7738 H           1 FA4       0.0290
     54 H21        33.5948   13.0255   17.1341 H           1 FA4       0.0502
     55 H22        34.5320   11.5866   17.4911 H           1 FA4       0.0502
     56 H23        34.6767   11.6183   20.2221 H           1 FA4       0.1882
     57 H24        35.5859   12.3460   22.0125 H           1 FA4       0.0799
     58 H25        34.4216   14.9410   21.0174 H           1 FA4       0.0312
     59 H26        35.5306   14.9763   22.3839 H           1 FA4       0.0312
     60 H27        37.6910   11.6997   21.6907 H           1 FA4       0.2217
     61 H28        34.1785   13.7054   23.7732 H           1 FA4       0.0269
     62 H29        33.2220   12.9989   22.4806 H           1 FA4       0.0269
     63 H30        33.1094   15.9311   23.3861 H           1 FA4       0.0317
     64 H31        31.9866   14.6739   23.8975 H           1 FA4       0.0317
     65 H32        32.2856   15.3926   20.9430 H           1 FA4       0.0813
     66 H33        31.2051   16.2786   22.0294 H           1 FA4       0.0813
     67 H34        30.0347   14.5729   20.9221 H           1 FA4       0.1994
     68 H35        30.1183   14.2016   22.5501 H           1 FA4       0.1994
     69 H36        31.0921   13.3972   21.4551 H           1 FA4       0.1994
     70 H37        29.4179    2.2982   15.5900 H           1 FA4       0.0839
     71 H38        28.6662    3.5800   16.4950 H           1 FA4       0.0839
     72 H39        30.5246    4.6505   16.1668 H           1 FA4       0.2664
     73 H40        32.8189    4.8656   13.8872 H           1 FA4       0.2615
     74 H41        32.3094    5.3916   15.3318 H           1 FA4       0.2615
     75 H42        30.3456    2.7887   13.3159 H           1 FA4       0.2615
     76 H43        31.7311    3.4081   12.7740 H           1 FA4       0.2615
     77 H44        39.6939   12.0270   21.5326 H           1 FA4       0.2490
@<TRIPOS>BOND
     1     1     2  ar
     2     1     6  ar
     3     2     3  ar
     4     3     4  ar
     5     3     7   1
     6     4     5  ar
     7     4    27   1
     8     5     6  ar
     9     7     8   1
    10     8     9   1
    11     9    10   1
    12    10    11   1
    13    11    12   1
    14    12    13   1
    15    13    14   1
    16    14    15   1
    17    15    16   1
    18    16    17  am
    19    16    19   2
    20    17    18   1
    21    18    20   1
    22    18    21   1
    23    20    23   1
    24    21    22  am
    25    21    33   2
    26    22    32   1
    27    23    24   1
    28    24    25   1
    29    25    26   1
    30    27    28   1
    31    28    29  ar
    32    29    30  ar
    33    29    31  ar
    34     1    34   1
    35     2    35   1
    36     5    36   1
    37     6    37   1
    38     7    38   1
    39     7    39   1
    40     8    40   1
    41     8    41   1
    42     9    42   1
    43     9    43   1
    44    10    44   1
    45    10    45   1
    46    11    46   1
    47    11    47   1
    48    12    48   1
    49    12    49   1
    50    13    50   1
    51    13    51   1
    52    14    52   1
    53    14    53   1
    54    15    54   1
    55    15    55   1
    56    17    56   1
    57    18    57   1
    58    20    58   1
    59    20    59   1
    60    22    60   1
    61    23    61   1
    62    23    62   1
    63    24    63   1
    64    24    64   1
    65    25    65   1
    66    25    66   1
    67    26    67   1
    68    26    68   1
    69    26    69   1
    70    27    70   1
    71    27    71   1
    72    28    72   1
    73    30    73   1
    74    30    74   1
    75    31    75   1
    76    31    76   1
    77    32    77   1
@<TRIPOS>SUBSTRUCTURE
     1  FA4      1

