@<TRIPOS>MOLECULE
2d1o_ligand_080
    77    77
SMALL
GAST_HUCK
****
This file was generated by PARSER (from files_GN.cpp)

@<TRIPOS>ATOM
      1 C1         24.8699    5.6051   12.8735 C.ar        1 FA4      -0.0755
      2 C2         24.4908    4.8142   13.9661 C.ar        1 FA4      -0.0668
      3 C3         25.4462    4.0905   14.7285 C.ar        1 FA4      -0.0377
      4 C4         26.8397    4.2125   14.3990 C.ar        1 FA4      -0.0050
      5 C5         27.1944    5.0681   13.3217 C.ar        1 FA4      -0.0635
      6 C6         26.2263    5.7312   12.5514 C.ar        1 FA4      -0.0754
      7 C7         24.9142    3.1944   15.8063 C.3         1 FA4      -0.0215
      8 C8         24.7040    1.7189   15.3308 C.3         1 FA4      -0.0443
      9 C9         23.2337    1.2147   15.1779 C.3         1 FA4      -0.0514
     10 C10        22.2402    2.0324   14.3020 C.3         1 FA4      -0.0529
     11 C11        22.6392    2.2690   12.8127 C.3         1 FA4      -0.0530
     12 C12        22.2103    1.1688   11.7891 C.3         1 FA4      -0.0529
     13 C13        21.0993    1.5993   10.7908 C.3         1 FA4      -0.0510
     14 C14        19.6856    1.7271   11.4204 C.3         1 FA4      -0.0361
     15 C15        18.6622    2.4145   10.4698 C.3         1 FA4       0.0374
     16 C16        17.2803    2.1982   10.8531 C.2         1 FA4       0.1782
     17 N17        16.8591    2.5327   12.0688 N.am        1 FA4      -0.2657
     18 C18        15.5199    2.3802   12.5681 C.3         1 FA4       0.1325
     19 O19        16.5112    1.7145   10.0290 O.2         1 FA4      -0.3969
     20 C20        15.3490    3.0801   13.9534 C.3         1 FA4      -0.0123
     21 C21        15.1446    0.9688   12.6237 C.2         1 FA4       0.2244
     22 N22        14.1510    0.5132   11.8774 N.am        1 FA4      -0.1623
     23 C23        15.6127    4.6196   13.9273 C.3         1 FA4      -0.0440
     24 C24        16.9527    5.0650   14.5799 C.3         1 FA4      -0.0124
     25 C25        17.4707    6.4296   14.0589 C.3         1 FA4      -0.0354
     26 N26        18.0983    6.2996   12.7365 N.4         1 FA4       0.2185
     27 C27        27.9515    3.5500   15.1608 C.3         1 FA4       0.0939
     28 N28        29.0425    3.1395   14.3727 N.pl3       1 FA4      -0.2620
     29 C29        30.1583    3.7470   14.1625 C.cat       1 FA4       0.2900
     30 N30        31.0187    3.1803   13.4059 N.pl3       1 FA4      -0.2847
     31 N31        30.4786    4.8848   14.6383 N.pl3       1 FA4      -0.2847
     32 O32        13.7911   -0.7427   11.8333 O.3         1 FA4      -0.2717
     33 O33        15.7971    0.1956   13.3169 O.2         1 FA4      -0.3944
     34 H1         24.1616    6.0935   12.3193 H           1 FA4       0.0541
     35 H2         23.4923    4.7495   14.1826 H           1 FA4       0.0537
     36 H3         28.1739    5.2183   13.0744 H           1 FA4       0.0538
     37 H4         26.5089    6.3148   11.7596 H           1 FA4       0.0541
     38 H5         23.9731    3.5863   16.2050 H           1 FA4       0.0411
     39 H6         25.6040    3.2222   16.6535 H           1 FA4       0.0411
     40 H7         25.1807    1.0641   16.0676 H           1 FA4       0.0286
     41 H8         25.2355    1.5434   14.3924 H           1 FA4       0.0286
     42 H9         22.8033    1.1502   16.1796 H           1 FA4       0.0267
     43 H10        23.2679    0.1980   14.7802 H           1 FA4       0.0267
     44 H11        22.0919    3.0012   14.7837 H           1 FA4       0.0265
     45 H12        21.2712    1.5247   14.3204 H           1 FA4       0.0265
     46 H13        23.7234    2.3898   12.7496 H           1 FA4       0.0265
     47 H14        22.2117    3.2274   12.5001 H           1 FA4       0.0265
     48 H15        21.9009    0.2581   12.3106 H           1 FA4       0.0265
     49 H16        23.0854    0.9044   11.1897 H           1 FA4       0.0265
     50 H17        21.0416    0.8551    9.9913 H           1 FA4       0.0267
     51 H18        21.3841    2.5497   10.3323 H           1 FA4       0.0267
     52 H19        19.7403    2.3106   12.3448 H           1 FA4       0.0290
     53 H20        19.3354    0.7203   11.6784 H           1 FA4       0.0290
     54 H21        18.8238    2.0501    9.4482 H           1 FA4       0.0502
     55 H22        18.8578    3.4907   10.4602 H           1 FA4       0.0502
     56 H23        17.5115    2.9272   12.6676 H           1 FA4       0.1882
     57 H24        14.8495    2.9055   11.8779 H           1 FA4       0.0799
     58 H25        16.0004    2.6008   14.6925 H           1 FA4       0.0312
     59 H26        14.3183    2.9178   14.2909 H           1 FA4       0.0312
     60 H27        13.6572    1.1463   11.3318 H           1 FA4       0.2217
     61 H28        14.8011    5.1289   14.4532 H           1 FA4       0.0269
     62 H29        15.5738    4.9742   12.8937 H           1 FA4       0.0269
     63 H30        17.7283    4.3147   14.4129 H           1 FA4       0.0317
     64 H31        16.7979    5.1375   15.6582 H           1 FA4       0.0317
     65 H32        18.2211    6.8246   14.7475 H           1 FA4       0.0813
     66 H33        16.6538    7.1530   13.9960 H           1 FA4       0.0813
     67 H34        18.4307    7.2146   12.4246 H           1 FA4       0.1994
     68 H35        17.4228    5.9377   12.0604 H           1 FA4       0.1994
     69 H36        18.8916    5.6570   12.7976 H           1 FA4       0.1994
     70 H37        27.5883    2.6413   15.6393 H           1 FA4       0.0839
     71 H38        28.2614    4.2199   15.9677 H           1 FA4       0.0839
     72 H39        28.9487    2.3153   13.9422 H           1 FA4       0.2664
     73 H40        31.8348    3.6024   13.2209 H           1 FA4       0.2615
     74 H41        30.8388    2.3498   13.0176 H           1 FA4       0.2615
     75 H42        29.8869    5.3603   15.1797 H           1 FA4       0.2615
     76 H43        31.3036    5.2691   14.4163 H           1 FA4       0.2615
     77 H44        14.5574   -1.2192   11.4469 H           1 FA4       0.2490
@<TRIPOS>BOND
     1     1     2  ar
     2     1     6  ar
     3     2     3  ar
     4     3     4  ar
     5     3     7   1
     6     4     5  ar
     7     4    27   1
     8     5     6  ar
     9     7     8   1
    10     8     9   1
    11     9    10   1
    12    10    11   1
    13    11    12   1
    14    12    13   1
    15    13    14   1
    16    14    15   1
    17    15    16   1
    18    16    17  am
    19    16    19   2
    20    17    18   1
    21    18    20   1
    22    18    21   1
    23    20    23   1
    24    21    22  am
    25    21    33   2
    26    22    32   1
    27    23    24   1
    28    24    25   1
    29    25    26   1
    30    27    28   1
    31    28    29  ar
    32    29    30  ar
    33    29    31  ar
    34     1    34   1
    35     2    35   1
    36     5    36   1
    37     6    37   1
    38     7    38   1
    39     7    39   1
    40     8    40   1
    41     8    41   1
    42     9    42   1
    43     9    43   1
    44    10    44   1
    45    10    45   1
    46    11    46   1
    47    11    47   1
    48    12    48   1
    49    12    49   1
    50    13    50   1
    51    13    51   1
    52    14    52   1
    53    14    53   1
    54    15    54   1
    55    15    55   1
    56    17    56   1
    57    18    57   1
    58    20    58   1
    59    20    59   1
    60    22    60   1
    61    23    61   1
    62    23    62   1
    63    24    63   1
    64    24    64   1
    65    25    65   1
    66    25    66   1
    67    26    67   1
    68    26    68   1
    69    26    69   1
    70    27    70   1
    71    27    71   1
    72    28    72   1
    73    30    73   1
    74    30    74   1
    75    31    75   1
    76    31    76   1
    77    32    77   1
@<TRIPOS>SUBSTRUCTURE
     1  FA4      1

