@<TRIPOS>MOLECULE
2d1o_ligand_043
    77    77
SMALL
GAST_HUCK
****
This file was generated by PARSER (from files_GN.cpp)

@<TRIPOS>ATOM
      1 C1         24.8263    5.5020   12.9451 C.ar        1 FA4      -0.0755
      2 C2         24.4639    4.7126   14.0450 C.ar        1 FA4      -0.0668
      3 C3         25.4276    3.9481   14.7528 C.ar        1 FA4      -0.0377
      4 C4         26.8100    4.0308   14.3676 C.ar        1 FA4      -0.0050
      5 C5         27.1496    4.8824   13.2826 C.ar        1 FA4      -0.0635
      6 C6         26.1706    5.5719   12.5508 C.ar        1 FA4      -0.0754
      7 C7         24.9245    3.0459   15.8405 C.3         1 FA4      -0.0215
      8 C8         24.6892    1.5755   15.3554 C.3         1 FA4      -0.0443
      9 C9         23.2053    1.1369   15.1489 C.3         1 FA4      -0.0514
     10 C10        22.2411    2.0987   14.3896 C.3         1 FA4      -0.0529
     11 C11        22.5793    2.3643   12.8894 C.3         1 FA4      -0.0530
     12 C12        21.9418    1.3688   11.8674 C.3         1 FA4      -0.0529
     13 C13        20.5760    1.8291   11.2798 C.3         1 FA4      -0.0510
     14 C14        19.4808    2.1856   12.3311 C.3         1 FA4      -0.0361
     15 C15        18.6112    1.0100   12.8747 C.3         1 FA4       0.0374
     16 C16        17.7490    0.4406   11.8468 C.2         1 FA4       0.1782
     17 N17        16.4355    0.6770   11.8652 N.am        1 FA4      -0.2657
     18 C18        15.4578    0.3304   10.8544 C.3         1 FA4       0.1325
     19 O19        18.2993   -0.1603   10.9334 O.2         1 FA4      -0.3969
     20 C20        14.8479    1.6172   10.1931 C.3         1 FA4      -0.0123
     21 C21        14.3815   -0.5060   11.4001 C.2         1 FA4       0.2244
     22 N22        13.5931   -1.2064   10.5999 N.am        1 FA4      -0.1623
     23 C23        15.5277    2.9994   10.4448 C.3         1 FA4      -0.0440
     24 C24        16.5424    3.5333    9.3994 C.3         1 FA4      -0.0124
     25 C25        17.6596    2.5509    8.9762 C.3         1 FA4      -0.0354
     26 N26        18.4923    3.1260    7.9119 N.4         1 FA4       0.2185
     27 C27        27.9207    3.3488   15.1118 C.3         1 FA4       0.0939
     28 N28        29.0421    3.0192   14.3345 N.pl3       1 FA4      -0.2620
     29 C29        30.0928    3.7191   14.1030 C.cat       1 FA4       0.2900
     30 N30        30.9963    3.2076   13.3596 N.pl3       1 FA4      -0.2847
     31 N31        30.2966    4.9021   14.5434 N.pl3       1 FA4      -0.2847
     32 O32        12.5995   -1.9305   11.0503 O.3         1 FA4      -0.2717
     33 O33        14.1818   -0.5354   12.6105 O.2         1 FA4      -0.3944
     34 H1         24.1151    6.0285   12.4317 H           1 FA4       0.0541
     35 H2         23.4736    4.6908   14.3197 H           1 FA4       0.0537
     36 H3         28.1217    5.0028   13.0010 H           1 FA4       0.0538
     37 H4         26.4403    6.1423   11.7465 H           1 FA4       0.0541
     38 H5         24.0048    3.4424   16.2766 H           1 FA4       0.0411
     39 H6         25.6382    3.0575   16.6639 H           1 FA4       0.0411
     40 H7         25.1139    0.9025   16.1031 H           1 FA4       0.0286
     41 H8         25.2474    1.3787   14.4351 H           1 FA4       0.0286
     42 H9         22.7750    0.9519   16.1370 H           1 FA4       0.0267
     43 H10        23.2047    0.1838   14.6135 H           1 FA4       0.0267
     44 H11        22.2103    3.0472   14.9259 H           1 FA4       0.0265
     45 H12        21.2334    1.6818   14.4594 H           1 FA4       0.0265
     46 H13        23.6659    2.3448   12.7517 H           1 FA4       0.0265
     47 H14        22.2655    3.3771   12.6309 H           1 FA4       0.0265
     48 H15        21.8388    0.3751   12.3161 H           1 FA4       0.0265
     49 H16        22.6336    1.2614   11.0257 H           1 FA4       0.0265
     50 H17        20.1985    1.0499   10.6116 H           1 FA4       0.0267
     51 H18        20.7580    2.7194   10.6647 H           1 FA4       0.0267
     52 H19        18.8081    2.9288   11.8849 H           1 FA4       0.0290
     53 H20        19.9745    2.6769   13.1789 H           1 FA4       0.0290
     54 H21        18.0004    1.4076   13.6945 H           1 FA4       0.0502
     55 H22        19.2519    0.2348   13.3183 H           1 FA4       0.0502
     56 H23        16.0992    1.1601   12.6400 H           1 FA4       0.1882
     57 H24        15.9531   -0.2433   10.0630 H           1 FA4       0.0799
     58 H25        13.8179    1.7225   10.5538 H           1 FA4       0.0312
     59 H26        14.7799    1.4585    9.1108 H           1 FA4       0.0312
     60 H27        13.7482   -1.1747    9.6401 H           1 FA4       0.2217
     61 H28        15.9906    3.0057   11.4337 H           1 FA4       0.0269
     62 H29        14.7215    3.7403   10.4761 H           1 FA4       0.0269
     63 H30        17.0153    4.4191    9.8367 H           1 FA4       0.0317
     64 H31        16.0070    3.8572    8.5055 H           1 FA4       0.0317
     65 H32        17.2120    1.6304    8.5956 H           1 FA4       0.0813
     66 H33        18.3056    2.2993    9.8249 H           1 FA4       0.0813
     67 H34        19.1696    2.4197    7.6162 H           1 FA4       0.1994
     68 H35        18.9773    3.9610    8.2636 H           1 FA4       0.1994
     69 H36        17.8931    3.3789    7.1272 H           1 FA4       0.1994
     70 H37        27.5834    2.3967   15.5165 H           1 FA4       0.0839
     71 H38        28.1872    3.9682   15.9694 H           1 FA4       0.0839
     72 H39        29.0209    2.1733   13.9303 H           1 FA4       0.2664
     73 H40        31.7701    3.6934   13.1557 H           1 FA4       0.2615
     74 H41        30.8863    2.3474   13.0072 H           1 FA4       0.2615
     75 H42        29.6573    5.3266   15.0767 H           1 FA4       0.2615
     76 H43        31.0812    5.3580   14.3121 H           1 FA4       0.2615
     77 H44        12.5467   -2.6968   10.4375 H           1 FA4       0.2490
@<TRIPOS>BOND
     1     1     2  ar
     2     1     6  ar
     3     2     3  ar
     4     3     4  ar
     5     3     7   1
     6     4     5  ar
     7     4    27   1
     8     5     6  ar
     9     7     8   1
    10     8     9   1
    11     9    10   1
    12    10    11   1
    13    11    12   1
    14    12    13   1
    15    13    14   1
    16    14    15   1
    17    15    16   1
    18    16    17  am
    19    16    19   2
    20    17    18   1
    21    18    20   1
    22    18    21   1
    23    20    23   1
    24    21    22  am
    25    21    33   2
    26    22    32   1
    27    23    24   1
    28    24    25   1
    29    25    26   1
    30    27    28   1
    31    28    29  ar
    32    29    30  ar
    33    29    31  ar
    34     1    34   1
    35     2    35   1
    36     5    36   1
    37     6    37   1
    38     7    38   1
    39     7    39   1
    40     8    40   1
    41     8    41   1
    42     9    42   1
    43     9    43   1
    44    10    44   1
    45    10    45   1
    46    11    46   1
    47    11    47   1
    48    12    48   1
    49    12    49   1
    50    13    50   1
    51    13    51   1
    52    14    52   1
    53    14    53   1
    54    15    54   1
    55    15    55   1
    56    17    56   1
    57    18    57   1
    58    20    58   1
    59    20    59   1
    60    22    60   1
    61    23    61   1
    62    23    62   1
    63    24    63   1
    64    24    64   1
    65    25    65   1
    66    25    66   1
    67    26    67   1
    68    26    68   1
    69    26    69   1
    70    27    70   1
    71    27    71   1
    72    28    72   1
    73    30    73   1
    74    30    74   1
    75    31    75   1
    76    31    76   1
    77    32    77   1
@<TRIPOS>SUBSTRUCTURE
     1  FA4      1

