@<TRIPOS>MOLECULE
2d1o_ligand_017
    77    77
SMALL
GAST_HUCK
****
This file was generated by PARSER (from files_GN.cpp)

@<TRIPOS>ATOM
      1 C1         26.1463    3.8474   12.6967 C.ar        1 FA4      -0.0755
      2 C2         26.9699    4.9477   12.9833 C.ar        1 FA4      -0.0668
      3 C3         27.9686    4.8935   13.9931 C.ar        1 FA4      -0.0377
      4 C4         28.1591    3.6586   14.6977 C.ar        1 FA4      -0.0050
      5 C5         27.3112    2.5599   14.3894 C.ar        1 FA4      -0.0635
      6 C6         26.3208    2.6476   13.4026 C.ar        1 FA4      -0.0754
      7 C7         28.7678    6.1435   14.2279 C.3         1 FA4      -0.0215
      8 C8         28.7243    6.6604   15.6933 C.3         1 FA4      -0.0443
      9 C9         29.4053    8.0333   15.9237 C.3         1 FA4      -0.0514
     10 C10        30.8874    7.9461   16.3882 C.3         1 FA4      -0.0529
     11 C11        31.4599    9.3638   16.6653 C.3         1 FA4      -0.0530
     12 C12        32.9991    9.4541   16.4577 C.3         1 FA4      -0.0529
     13 C13        33.6622   10.5072   17.3988 C.3         1 FA4      -0.0510
     14 C14        34.7941   11.3621   16.7516 C.3         1 FA4      -0.0361
     15 C15        36.0474   10.5712   16.2347 C.3         1 FA4       0.0374
     16 C16        36.2481   10.6511   14.7892 C.2         1 FA4       0.1782
     17 N17        35.6181    9.7883   13.9971 N.am        1 FA4      -0.2657
     18 C18        35.8054    9.5915   12.5816 C.3         1 FA4       0.1325
     19 O19        37.0266   11.4947   14.3364 O.2         1 FA4      -0.3969
     20 C20        36.1429   10.9133   11.7895 C.3         1 FA4      -0.0123
     21 C21        34.6644    8.8161   12.0774 C.2         1 FA4       0.2244
     22 N22        34.4914    7.5650   12.4795 N.am        1 FA4      -0.1623
     23 C23        35.0542   12.0078   11.5409 C.3         1 FA4      -0.0440
     24 C24        34.2037   12.4431   12.7713 C.3         1 FA4      -0.0124
     25 C25        33.5497   13.8485   12.6423 C.3         1 FA4      -0.0354
     26 N26        32.9959   14.1565   11.3120 N.4         1 FA4       0.2185
     27 C27        29.2146    3.4348   15.7373 C.3         1 FA4       0.0939
     28 N28        30.4029    4.1438   15.5573 N.pl3       1 FA4      -0.2620
     29 C29        31.2088    4.0913   14.5612 C.cat       1 FA4       0.2900
     30 N30        32.2586    4.8168   14.6223 N.pl3       1 FA4      -0.2847
     31 N31        31.0418    3.3688   13.5184 N.pl3       1 FA4      -0.2847
     32 O32        33.4566    6.8645   12.0899 O.3         1 FA4      -0.2717
     33 O33        33.8630    9.3025   11.2849 O.2         1 FA4      -0.3944
     34 H1         25.4274    3.9155   11.9727 H           1 FA4       0.0541
     35 H2         26.8278    5.7971   12.4349 H           1 FA4       0.0537
     36 H3         27.4149    1.6677   14.8783 H           1 FA4       0.0538
     37 H4         25.7182    1.8475   13.2014 H           1 FA4       0.0541
     38 H5         28.4108    6.9572   13.5902 H           1 FA4       0.0411
     39 H6         29.8034    5.9813   13.9308 H           1 FA4       0.0411
     40 H7         29.2008    5.9471   16.3626 H           1 FA4       0.0286
     41 H8         27.6833    6.7509   16.0055 H           1 FA4       0.0286
     42 H9         28.8159    8.5713   16.6796 H           1 FA4       0.0267
     43 H10        29.3775    8.6220   15.0021 H           1 FA4       0.0267
     44 H11        31.4848    7.4402   15.6144 H           1 FA4       0.0265
     45 H12        30.9490    7.3599   17.3152 H           1 FA4       0.0265
     46 H13        31.2117    9.6328   17.6990 H           1 FA4       0.0265
     47 H14        30.9875   10.0902   15.9952 H           1 FA4       0.0265
     48 H15        33.1837    9.7305   15.4084 H           1 FA4       0.0265
     49 H16        33.4588    8.4746   16.6552 H           1 FA4       0.0265
     50 H17        34.0695    9.9885   18.2819 H           1 FA4       0.0267
     51 H18        32.8936   11.2123   17.7457 H           1 FA4       0.0267
     52 H19        35.1355   12.0705   17.5193 H           1 FA4       0.0290
     53 H20        34.3562   11.9574   15.9440 H           1 FA4       0.0290
     54 H21        35.9844    9.5104   16.5207 H           1 FA4       0.0502
     55 H22        36.9402   10.9659   16.7383 H           1 FA4       0.0502
     56 H23        35.0409    9.1355   14.4373 H           1 FA4       0.1882
     57 H24        36.6896    8.9454   12.4599 H           1 FA4       0.0799
     58 H25        36.4995   10.6062   10.7954 H           1 FA4       0.0312
     59 H26        36.9954   11.4016   12.2857 H           1 FA4       0.0312
     60 H27        35.1362    7.1690   13.1030 H           1 FA4       0.2217
     61 H28        34.3651   11.6722   10.7528 H           1 FA4       0.0269
     62 H29        35.5789   12.8934   11.1546 H           1 FA4       0.0269
     63 H30        34.8580   12.4792   13.6479 H           1 FA4       0.0317
     64 H31        33.4160   11.7000   12.9428 H           1 FA4       0.0317
     65 H32        34.2975   14.6185   12.8734 H           1 FA4       0.0813
     66 H33        32.7396   13.9341   13.3730 H           1 FA4       0.0813
     67 H34        32.5389   15.0726   11.3416 H           1 FA4       0.1994
     68 H35        32.3108   13.4496   11.0311 H           1 FA4       0.1994
     69 H36        33.7542   14.1791   10.6264 H           1 FA4       0.1994
     70 H37        29.4763    2.3746   15.8233 H           1 FA4       0.0839
     71 H38        28.7916    3.7117   16.7018 H           1 FA4       0.0839
     72 H39        30.6441    4.7173   16.2528 H           1 FA4       0.2664
     73 H40        32.8566    4.8408   13.9060 H           1 FA4       0.2615
     74 H41        32.4093    5.3602   15.3693 H           1 FA4       0.2615
     75 H42        30.2781    2.8388   13.4281 H           1 FA4       0.2615
     76 H43        31.6866    3.3572   12.8425 H           1 FA4       0.2615
     77 H44        33.7681    5.9384   12.0753 H           1 FA4       0.2490
@<TRIPOS>BOND
     1     1     2  ar
     2     1     6  ar
     3     2     3  ar
     4     3     4  ar
     5     3     7   1
     6     4     5  ar
     7     4    27   1
     8     5     6  ar
     9     7     8   1
    10     8     9   1
    11     9    10   1
    12    10    11   1
    13    11    12   1
    14    12    13   1
    15    13    14   1
    16    14    15   1
    17    15    16   1
    18    16    17  am
    19    16    19   2
    20    17    18   1
    21    18    20   1
    22    18    21   1
    23    20    23   1
    24    21    22  am
    25    21    33   2
    26    22    32   1
    27    23    24   1
    28    24    25   1
    29    25    26   1
    30    27    28   1
    31    28    29  ar
    32    29    30  ar
    33    29    31  ar
    34     1    34   1
    35     2    35   1
    36     5    36   1
    37     6    37   1
    38     7    38   1
    39     7    39   1
    40     8    40   1
    41     8    41   1
    42     9    42   1
    43     9    43   1
    44    10    44   1
    45    10    45   1
    46    11    46   1
    47    11    47   1
    48    12    48   1
    49    12    49   1
    50    13    50   1
    51    13    51   1
    52    14    52   1
    53    14    53   1
    54    15    54   1
    55    15    55   1
    56    17    56   1
    57    18    57   1
    58    20    58   1
    59    20    59   1
    60    22    60   1
    61    23    61   1
    62    23    62   1
    63    24    63   1
    64    24    64   1
    65    25    65   1
    66    25    66   1
    67    26    67   1
    68    26    68   1
    69    26    69   1
    70    27    70   1
    71    27    71   1
    72    28    72   1
    73    30    73   1
    74    30    74   1
    75    31    75   1
    76    31    76   1
    77    32    77   1
@<TRIPOS>SUBSTRUCTURE
     1  FA4      1

