@<TRIPOS>MOLECULE
2d1o_ligand_055
    77    77
SMALL
GAST_HUCK
****
This file was generated by PARSER (from files_GN.cpp)

@<TRIPOS>ATOM
      1 C1         29.1502    8.0820   16.6875 C.ar        1 FA4      -0.0755
      2 C2         29.1149    6.9529   15.8298 C.ar        1 FA4      -0.0668
      3 C3         30.2927    6.2823   15.4113 C.ar        1 FA4      -0.0377
      4 C4         31.5532    6.8205   15.8434 C.ar        1 FA4      -0.0050
      5 C5         31.5711    7.9578   16.7189 C.ar        1 FA4      -0.0635
      6 C6         30.3855    8.5889   17.1148 C.ar        1 FA4      -0.0754
      7 C7         30.1363    5.0753   14.5347 C.3         1 FA4      -0.0215
      8 C8         29.9758    3.7264   15.2875 C.3         1 FA4      -0.0443
      9 C9         28.5814    3.4602   15.9368 C.3         1 FA4      -0.0514
     10 C10        27.5450    2.6773   15.0569 C.3         1 FA4      -0.0529
     11 C11        27.4049    3.1275   13.5793 C.3         1 FA4      -0.0530
     12 C12        26.5114    4.3675   13.3430 C.3         1 FA4      -0.0529
     13 C13        25.1109    4.3215   14.0117 C.3         1 FA4      -0.0510
     14 C14        24.2874    3.0469   13.6720 C.3         1 FA4      -0.0361
     15 C15        23.0285    2.8191   14.5620 C.3         1 FA4       0.0374
     16 C16        21.9727    3.8244   14.4481 C.2         1 FA4       0.1782
     17 N17        22.1534    5.0624   14.9194 N.am        1 FA4      -0.2657
     18 C18        21.2353    6.1712   14.8773 C.3         1 FA4       0.1325
     19 O19        20.8889    3.4829   13.9705 O.2         1 FA4      -0.3969
     20 C20        19.9599    5.9019   15.7398 C.3         1 FA4      -0.0123
     21 C21        20.9482    6.5728   13.5100 C.2         1 FA4       0.2244
     22 N22        21.3784    7.7313   13.0276 N.am        1 FA4      -0.1623
     23 C23        19.1110    7.1672   16.0523 C.3         1 FA4      -0.0440
     24 C24        17.5766    6.8856   16.1110 C.3         1 FA4      -0.0124
     25 C25        16.8800    7.0254   14.7388 C.3         1 FA4      -0.0354
     26 N26        15.6060    6.2939   14.6750 N.4         1 FA4       0.2185
     27 C27        32.8816    6.2436   15.4834 C.3         1 FA4       0.0939
     28 N28        33.2024    6.2209   14.1182 N.pl3       1 FA4      -0.2620
     29 C29        33.4815    7.2089   13.3503 C.cat       1 FA4       0.2900
     30 N30        33.7621    6.9236   12.1395 N.pl3       1 FA4      -0.2847
     31 N31        33.5195    8.4340   13.7222 N.pl3       1 FA4      -0.2847
     32 O32        21.1707    8.1258   11.8022 O.3         1 FA4      -0.2717
     33 O33        20.3038    5.8155   12.7813 O.2         1 FA4      -0.3944
     34 H1         28.2868    8.5490   16.9809 H           1 FA4       0.0541
     35 H2         28.1930    6.6098   15.5738 H           1 FA4       0.0537
     36 H3         32.4574    8.3602   17.0551 H           1 FA4       0.0538
     37 H4         30.4209    9.4097   17.7338 H           1 FA4       0.0541
     38 H5         30.9865    4.9954   13.8716 H           1 FA4       0.0411
     39 H6         29.2828    5.1971   13.8796 H           1 FA4       0.0411
     40 H7         30.7218    3.6718   16.0810 H           1 FA4       0.0286
     41 H8         30.2303    2.9040   14.6153 H           1 FA4       0.0286
     42 H9         28.1398    4.3988   16.2850 H           1 FA4       0.0267
     43 H10        28.7383    2.8567   16.8430 H           1 FA4       0.0267
     44 H11        26.5727    2.7215   15.5567 H           1 FA4       0.0265
     45 H12        27.8657    1.6309   15.0686 H           1 FA4       0.0265
     46 H13        27.0162    2.2783   13.0085 H           1 FA4       0.0265
     47 H14        28.4079    3.3306   13.1774 H           1 FA4       0.0265
     48 H15        26.3594    4.4993   12.2667 H           1 FA4       0.0265
     49 H16        27.0260    5.2644   13.6945 H           1 FA4       0.0265
     50 H17        24.5568    5.1997   13.6593 H           1 FA4       0.0267
     51 H18        25.2261    4.4179   15.0974 H           1 FA4       0.0267
     52 H19        24.9415    2.1691   13.8232 H           1 FA4       0.0290
     53 H20        23.9820    3.0842   12.6063 H           1 FA4       0.0290
     54 H21        23.3167    2.7360   15.6241 H           1 FA4       0.0502
     55 H22        22.6162    1.8474   14.2758 H           1 FA4       0.0502
     56 H23        23.0176    5.2549   15.3233 H           1 FA4       0.1882
     57 H24        21.7718    6.9900   15.3873 H           1 FA4       0.0799
     58 H25        20.2625    5.4599   16.6989 H           1 FA4       0.0312
     59 H26        19.3432    5.1566   15.2378 H           1 FA4       0.0312
     60 H27        21.8629    8.3316   13.6213 H           1 FA4       0.2217
     61 H28        19.2859    7.9592   15.3104 H           1 FA4       0.0269
     62 H29        19.4247    7.5699   17.0230 H           1 FA4       0.0269
     63 H30        17.1025    7.5939   16.8047 H           1 FA4       0.0317
     64 H31        17.4113    5.8759   16.5123 H           1 FA4       0.0317
     65 H32        17.5123    6.6585   13.9196 H           1 FA4       0.0813
     66 H33        16.6668    8.0862   14.5456 H           1 FA4       0.0813
     67 H34        15.1428    6.5299   13.7941 H           1 FA4       0.1994
     68 H35        14.9997    6.5487   15.4686 H           1 FA4       0.1994
     69 H36        15.7972    5.2828   14.7070 H           1 FA4       0.1994
     70 H37        32.8979    5.2165   15.8452 H           1 FA4       0.0839
     71 H38        33.7055    6.7409   15.9971 H           1 FA4       0.0839
     72 H39        33.1911    5.3901   13.7119 H           1 FA4       0.2664
     73 H40        33.9955    7.6062   11.5331 H           1 FA4       0.2615
     74 H41        33.7474    6.0280   11.8526 H           1 FA4       0.2615
     75 H42        33.3139    8.6602   14.6032 H           1 FA4       0.2615
     76 H43        33.7305    9.1039   13.1070 H           1 FA4       0.2615
     77 H44        21.8420    7.6422   11.2613 H           1 FA4       0.2490
@<TRIPOS>BOND
     1     1     2  ar
     2     1     6  ar
     3     2     3  ar
     4     3     4  ar
     5     3     7   1
     6     4     5  ar
     7     4    27   1
     8     5     6  ar
     9     7     8   1
    10     8     9   1
    11     9    10   1
    12    10    11   1
    13    11    12   1
    14    12    13   1
    15    13    14   1
    16    14    15   1
    17    15    16   1
    18    16    17  am
    19    16    19   2
    20    17    18   1
    21    18    20   1
    22    18    21   1
    23    20    23   1
    24    21    22  am
    25    21    33   2
    26    22    32   1
    27    23    24   1
    28    24    25   1
    29    25    26   1
    30    27    28   1
    31    28    29  ar
    32    29    30  ar
    33    29    31  ar
    34     1    34   1
    35     2    35   1
    36     5    36   1
    37     6    37   1
    38     7    38   1
    39     7    39   1
    40     8    40   1
    41     8    41   1
    42     9    42   1
    43     9    43   1
    44    10    44   1
    45    10    45   1
    46    11    46   1
    47    11    47   1
    48    12    48   1
    49    12    49   1
    50    13    50   1
    51    13    51   1
    52    14    52   1
    53    14    53   1
    54    15    54   1
    55    15    55   1
    56    17    56   1
    57    18    57   1
    58    20    58   1
    59    20    59   1
    60    22    60   1
    61    23    61   1
    62    23    62   1
    63    24    63   1
    64    24    64   1
    65    25    65   1
    66    25    66   1
    67    26    67   1
    68    26    68   1
    69    26    69   1
    70    27    70   1
    71    27    71   1
    72    28    72   1
    73    30    73   1
    74    30    74   1
    75    31    75   1
    76    31    76   1
    77    32    77   1
@<TRIPOS>SUBSTRUCTURE
     1  FA4      1

