@<TRIPOS>MOLECULE
2d1o_ligand_032
    77    77
SMALL
GAST_HUCK
****
This file was generated by PARSER (from files_GN.cpp)

@<TRIPOS>ATOM
      1 C1         20.5082    3.8127   16.1396 C.ar        1 FA4      -0.0755
      2 C2         21.8989    3.6746   16.2616 C.ar        1 FA4      -0.0668
      3 C3         22.7346    3.4684   15.1310 C.ar        1 FA4      -0.0377
      4 C4         22.1285    3.4128   13.8328 C.ar        1 FA4      -0.0050
      5 C5         20.7156    3.5593   13.7386 C.ar        1 FA4      -0.0635
      6 C6         19.9149    3.7482   14.8715 C.ar        1 FA4      -0.0754
      7 C7         24.2120    3.3913   15.3728 C.3         1 FA4      -0.0215
      8 C8         24.8740    1.9985   15.1281 C.3         1 FA4      -0.0443
      9 C9         26.1987    2.0378   14.3068 C.3         1 FA4      -0.0514
     10 C10        27.5330    2.1612   15.1086 C.3         1 FA4      -0.0529
     11 C11        27.7796    3.4664   15.9267 C.3         1 FA4      -0.0530
     12 C12        28.3983    4.6665   15.1470 C.3         1 FA4      -0.0529
     13 C13        29.9449    4.6037   14.9568 C.3         1 FA4      -0.0510
     14 C14        30.7359    5.7091   15.7143 C.3         1 FA4      -0.0361
     15 C15        32.2769    5.4445   15.7912 C.3         1 FA4       0.0374
     16 C16        33.1164    6.5950   15.5222 C.2         1 FA4       0.1782
     17 N17        32.8907    7.3250   14.4352 N.am        1 FA4      -0.2657
     18 C18        33.7115    8.3884   13.9160 C.3         1 FA4       0.1325
     19 O19        34.0533    6.8340   16.2772 O.2         1 FA4      -0.3969
     20 C20        32.9297    9.7365   14.0432 C.3         1 FA4      -0.0123
     21 C21        34.1431    7.9902   12.5785 C.2         1 FA4       0.2244
     22 N22        35.2473    7.2776   12.4331 N.am        1 FA4      -0.1623
     23 C23        33.6951   10.9963   13.5259 C.3         1 FA4      -0.0440
     24 C24        33.1512   12.3492   14.0630 C.3         1 FA4      -0.0124
     25 C25        31.6178   12.5639   13.9662 C.3         1 FA4      -0.0354
     26 N26        31.2297   13.5579   12.9585 N.4         1 FA4       0.2185
     27 C27        22.8611    3.1384   12.5508 C.3         1 FA4       0.0939
     28 N28        24.1086    3.7401   12.3909 N.pl3       1 FA4      -0.2620
     29 C29        24.3930    4.9868   12.3304 C.cat       1 FA4       0.2900
     30 N30        25.6241    5.2931   12.1792 N.pl3       1 FA4      -0.2847
     31 N31        23.5617    5.9577   12.4232 N.pl3       1 FA4      -0.2847
     32 O32        35.6693    6.8435   11.2740 O.3         1 FA4      -0.2717
     33 O33        33.4669    8.2549   11.5867 O.2         1 FA4      -0.3944
     34 H1         19.9261    3.9551   16.9708 H           1 FA4       0.0541
     35 H2         22.2947    3.7345   17.2036 H           1 FA4       0.0537
     36 H3         20.2440    3.5048   12.8290 H           1 FA4       0.0538
     37 H4         18.9028    3.8424   14.7760 H           1 FA4       0.0541
     38 H5         24.4354    3.6576   16.4155 H           1 FA4       0.0411
     39 H6         24.6953    4.1627   14.7674 H           1 FA4       0.0411
     40 H7         24.1774    1.3468   14.5978 H           1 FA4       0.0286
     41 H8         25.0699    1.5185   16.0962 H           1 FA4       0.0286
     42 H9         26.1447    2.8234   13.5451 H           1 FA4       0.0267
     43 H10        26.2545    1.0840   13.7739 H           1 FA4       0.0267
     44 H11        28.3611    2.0460   14.4017 H           1 FA4       0.0265
     45 H12        27.5888    1.3109   15.7936 H           1 FA4       0.0265
     46 H13        28.4336    3.2163   16.7655 H           1 FA4       0.0265
     47 H14        26.8448    3.7991   16.3683 H           1 FA4       0.0265
     48 H15        28.1556    5.5935   15.6763 H           1 FA4       0.0265
     49 H16        27.9252    4.7332   14.1633 H           1 FA4       0.0265
     50 H17        30.1655    4.7041   13.8914 H           1 FA4       0.0267
     51 H18        30.3048    3.6190   15.2764 H           1 FA4       0.0267
     52 H19        30.3512    5.7774   16.7342 H           1 FA4       0.0290
     53 H20        30.5283    6.6708   15.2380 H           1 FA4       0.0290
     54 H21        32.5672    4.6666   15.0806 H           1 FA4       0.0502
     55 H22        32.5048    5.0489   16.7873 H           1 FA4       0.0502
     56 H23        32.1086    7.0861   13.9082 H           1 FA4       0.1882
     57 H24        34.6238    8.5012   14.5162 H           1 FA4       0.0799
     58 H25        32.7131    9.8761   15.1054 H           1 FA4       0.0312
     59 H26        31.9697    9.6604   13.5222 H           1 FA4       0.0312
     60 H27        35.7633    7.0515   13.2254 H           1 FA4       0.2217
     61 H28        33.6812   11.0164   12.4347 H           1 FA4       0.0269
     62 H29        34.7433   10.9234   13.8313 H           1 FA4       0.0269
     63 H30        33.6486   13.1598   13.5264 H           1 FA4       0.0317
     64 H31        33.4472   12.4344   15.1136 H           1 FA4       0.0317
     65 H32        31.2620   12.9408   14.9257 H           1 FA4       0.0813
     66 H33        31.1112   11.6191   13.7631 H           1 FA4       0.0813
     67 H34        30.2335   13.7560   13.0591 H           1 FA4       0.1994
     68 H35        31.3968   13.2187   12.0127 H           1 FA4       0.1994
     69 H36        31.7576   14.4190   13.1073 H           1 FA4       0.1994
     70 H37        22.2600    3.4074   11.6709 H           1 FA4       0.0839
     71 H38        23.0130    2.0591   12.4838 H           1 FA4       0.0839
     72 H39        24.8328    3.1573   12.2966 H           1 FA4       0.2664
     73 H40        25.8792    6.1861   12.1558 H           1 FA4       0.2615
     74 H41        26.2706    4.6290   12.0757 H           1 FA4       0.2615
     75 H42        22.6511    5.7926   12.5334 H           1 FA4       0.2615
     76 H43        23.8885    6.8332   12.4135 H           1 FA4       0.2615
     77 H44        35.3123    5.9272   11.2008 H           1 FA4       0.2490
@<TRIPOS>BOND
     1     1     2  ar
     2     1     6  ar
     3     2     3  ar
     4     3     4  ar
     5     3     7   1
     6     4     5  ar
     7     4    27   1
     8     5     6  ar
     9     7     8   1
    10     8     9   1
    11     9    10   1
    12    10    11   1
    13    11    12   1
    14    12    13   1
    15    13    14   1
    16    14    15   1
    17    15    16   1
    18    16    17  am
    19    16    19   2
    20    17    18   1
    21    18    20   1
    22    18    21   1
    23    20    23   1
    24    21    22  am
    25    21    33   2
    26    22    32   1
    27    23    24   1
    28    24    25   1
    29    25    26   1
    30    27    28   1
    31    28    29  ar
    32    29    30  ar
    33    29    31  ar
    34     1    34   1
    35     2    35   1
    36     5    36   1
    37     6    37   1
    38     7    38   1
    39     7    39   1
    40     8    40   1
    41     8    41   1
    42     9    42   1
    43     9    43   1
    44    10    44   1
    45    10    45   1
    46    11    46   1
    47    11    47   1
    48    12    48   1
    49    12    49   1
    50    13    50   1
    51    13    51   1
    52    14    52   1
    53    14    53   1
    54    15    54   1
    55    15    55   1
    56    17    56   1
    57    18    57   1
    58    20    58   1
    59    20    59   1
    60    22    60   1
    61    23    61   1
    62    23    62   1
    63    24    63   1
    64    24    64   1
    65    25    65   1
    66    25    66   1
    67    26    67   1
    68    26    68   1
    69    26    69   1
    70    27    70   1
    71    27    71   1
    72    28    72   1
    73    30    73   1
    74    30    74   1
    75    31    75   1
    76    31    76   1
    77    32    77   1
@<TRIPOS>SUBSTRUCTURE
     1  FA4      1

