@<TRIPOS>MOLECULE
2d1o_ligand_088
    77    77
SMALL
GAST_HUCK
****
This file was generated by PARSER (from files_GN.cpp)

@<TRIPOS>ATOM
      1 C1         25.9508    4.5078   13.0823 C.ar        1 FA4      -0.0755
      2 C2         26.9532    5.4699   13.2755 C.ar        1 FA4      -0.0668
      3 C3         27.9004    5.3662   14.3262 C.ar        1 FA4      -0.0377
      4 C4         27.8528    4.2028   15.1626 C.ar        1 FA4      -0.0050
      5 C5         26.8195    3.2502   14.9612 C.ar        1 FA4      -0.0635
      6 C6         25.8697    3.4050   13.9397 C.ar        1 FA4      -0.0754
      7 C7         28.9071    6.4768   14.4569 C.3         1 FA4      -0.0215
      8 C8         29.0966    7.0319   15.9031 C.3         1 FA4      -0.0443
      9 C9         29.7042    8.4612   15.9811 C.3         1 FA4      -0.0514
     10 C10        31.1991    8.5155   16.4038 C.3         1 FA4      -0.0529
     11 C11        31.7897    9.9522   16.3046 C.3         1 FA4      -0.0530
     12 C12        33.3082    9.9774   15.9489 C.3         1 FA4      -0.0529
     13 C13        34.2805   10.1458   17.1551 C.3         1 FA4      -0.0510
     14 C14        34.5194   11.6195   17.6054 C.3         1 FA4      -0.0361
     15 C15        35.7615   12.3364   16.9945 C.3         1 FA4       0.0374
     16 C16        35.7254   12.5540   15.5560 C.2         1 FA4       0.1782
     17 N17        36.3209   11.6918   14.7327 N.am        1 FA4      -0.2657
     18 C18        36.5598   11.9029   13.3267 C.3         1 FA4       0.1325
     19 O19        35.2602   13.6077   15.1356 O.2         1 FA4      -0.3969
     20 C20        36.2704   10.6402   12.4534 C.3         1 FA4      -0.0123
     21 C21        37.9331   12.3635   13.1482 C.2         1 FA4       0.2244
     22 N22        38.9470   11.6256   13.5700 N.am        1 FA4      -0.1623
     23 C23        35.0606    9.7899   12.9433 C.3         1 FA4      -0.0440
     24 C24        34.3412    8.9725   11.8335 C.3         1 FA4      -0.0124
     25 C25        35.1515    7.7898   11.2399 C.3         1 FA4      -0.0354
     26 N26        34.9848    6.5314   11.9835 N.4         1 FA4       0.2185
     27 C27        28.8658    3.8934   16.2262 C.3         1 FA4       0.0939
     28 N28        30.2012    4.0261   15.8358 N.pl3       1 FA4      -0.2620
     29 C29        30.7631    3.5877   14.7713 C.cat       1 FA4       0.2900
     30 N30        32.0031    3.8440   14.6160 N.pl3       1 FA4      -0.2847
     31 N31        30.1742    2.9193   13.8524 N.pl3       1 FA4      -0.2847
     32 O32        40.1933   12.0081   13.4657 O.3         1 FA4      -0.2717
     33 O33        38.1452   13.4559   12.6343 O.2         1 FA4      -0.3944
     34 H1         25.2730    4.6137   12.3225 H           1 FA4       0.0541
     35 H2         26.9834    6.2531   12.6214 H           1 FA4       0.0537
     36 H3         26.7465    2.4184   15.5565 H           1 FA4       0.0538
     37 H4         25.1327    2.7062   13.8116 H           1 FA4       0.0541
     38 H5         28.6218    7.3205   13.8191 H           1 FA4       0.0411
     39 H6         29.8692    6.1462   14.0666 H           1 FA4       0.0411
     40 H7         29.7382    6.3614   16.4772 H           1 FA4       0.0286
     41 H8         28.1229    7.0616   16.3967 H           1 FA4       0.0286
     42 H9         29.1295    9.0406   16.7079 H           1 FA4       0.0267
     43 H10        29.5944    8.9458   15.0101 H           1 FA4       0.0267
     44 H11        31.7804    7.8597   15.7481 H           1 FA4       0.0265
     45 H12        31.3000    8.1502   17.4318 H           1 FA4       0.0265
     46 H13        31.6117   10.5020   17.2374 H           1 FA4       0.0265
     47 H14        31.2512   10.4801   15.5086 H           1 FA4       0.0265
     48 H15        33.4748   10.7771   15.2273 H           1 FA4       0.0265
     49 H16        33.5571    9.0419   15.4466 H           1 FA4       0.0265
     50 H17        35.2455    9.6974   16.8927 H           1 FA4       0.0267
     51 H18        33.8917    9.5709   18.0077 H           1 FA4       0.0267
     52 H19        34.6755   11.6050   18.6890 H           1 FA4       0.0290
     53 H20        33.6234   12.2188   17.4210 H           1 FA4       0.0290
     54 H21        36.6738   11.7852   17.2457 H           1 FA4       0.0502
     55 H22        35.8519   13.3088   17.4936 H           1 FA4       0.0502
     56 H23        36.6888   10.8826   15.1272 H           1 FA4       0.1882
     57 H24        35.8673   12.6762   12.9734 H           1 FA4       0.0799
     58 H25        37.1575    9.9939   12.4183 H           1 FA4       0.0312
     59 H26        36.0736   10.9888   11.4334 H           1 FA4       0.0312
     60 H27        38.7618   10.7664   13.9913 H           1 FA4       0.2217
     61 H28        34.3125   10.4486   13.3953 H           1 FA4       0.0269
     62 H29        35.4157    9.0980   13.7081 H           1 FA4       0.0269
     63 H30        34.0701    9.6533   11.0176 H           1 FA4       0.0317
     64 H31        33.4051    8.5832   12.2451 H           1 FA4       0.0317
     65 H32        36.2137    8.0420   11.2075 H           1 FA4       0.0813
     66 H33        34.8223    7.6117   10.2138 H           1 FA4       0.0813
     67 H34        35.5150    5.8020   11.5133 H           1 FA4       0.1994
     68 H35        34.0102    6.2255   12.0030 H           1 FA4       0.1994
     69 H36        35.3294    6.6226   12.9413 H           1 FA4       0.1994
     70 H37        28.7437    2.8750   16.6220 H           1 FA4       0.0839
     71 H38        28.6866    4.5652   17.0666 H           1 FA4       0.0839
     72 H39        30.7517    4.4958   16.4244 H           1 FA4       0.2664
     73 H40        32.4448    3.5914   13.8315 H           1 FA4       0.2615
     74 H41        32.4686    4.3304   15.2665 H           1 FA4       0.2615
     75 H42        29.2663    2.7170   13.9289 H           1 FA4       0.2615
     76 H43        30.6477    2.6156   13.1026 H           1 FA4       0.2615
     77 H44        40.7101   11.2721   13.8566 H           1 FA4       0.2490
@<TRIPOS>BOND
     1     1     2  ar
     2     1     6  ar
     3     2     3  ar
     4     3     4  ar
     5     3     7   1
     6     4     5  ar
     7     4    27   1
     8     5     6  ar
     9     7     8   1
    10     8     9   1
    11     9    10   1
    12    10    11   1
    13    11    12   1
    14    12    13   1
    15    13    14   1
    16    14    15   1
    17    15    16   1
    18    16    17  am
    19    16    19   2
    20    17    18   1
    21    18    20   1
    22    18    21   1
    23    20    23   1
    24    21    22  am
    25    21    33   2
    26    22    32   1
    27    23    24   1
    28    24    25   1
    29    25    26   1
    30    27    28   1
    31    28    29  ar
    32    29    30  ar
    33    29    31  ar
    34     1    34   1
    35     2    35   1
    36     5    36   1
    37     6    37   1
    38     7    38   1
    39     7    39   1
    40     8    40   1
    41     8    41   1
    42     9    42   1
    43     9    43   1
    44    10    44   1
    45    10    45   1
    46    11    46   1
    47    11    47   1
    48    12    48   1
    49    12    49   1
    50    13    50   1
    51    13    51   1
    52    14    52   1
    53    14    53   1
    54    15    54   1
    55    15    55   1
    56    17    56   1
    57    18    57   1
    58    20    58   1
    59    20    59   1
    60    22    60   1
    61    23    61   1
    62    23    62   1
    63    24    63   1
    64    24    64   1
    65    25    65   1
    66    25    66   1
    67    26    67   1
    68    26    68   1
    69    26    69   1
    70    27    70   1
    71    27    71   1
    72    28    72   1
    73    30    73   1
    74    30    74   1
    75    31    75   1
    76    31    76   1
    77    32    77   1
@<TRIPOS>SUBSTRUCTURE
     1  FA4      1

