@<TRIPOS>MOLECULE
2d1o_ligand_062
    77    77
SMALL
GAST_HUCK
****
This file was generated by PARSER (from files_GN.cpp)

@<TRIPOS>ATOM
      1 C1         23.5868    1.8937   15.8487 C.ar        1 FA4      -0.0755
      2 C2         24.5627    2.9071   15.8066 C.ar        1 FA4      -0.0668
      3 C3         24.8167    3.6354   14.6143 C.ar        1 FA4      -0.0377
      4 C4         24.0266    3.3667   13.4519 C.ar        1 FA4      -0.0050
      5 C5         23.0537    2.3363   13.5188 C.ar        1 FA4      -0.0635
      6 C6         22.8399    1.6048   14.7021 C.ar        1 FA4      -0.0754
      7 C7         25.9732    4.5884   14.6135 C.3         1 FA4      -0.0215
      8 C8         27.2192    4.0212   13.8567 C.3         1 FA4      -0.0443
      9 C9         28.4697    3.7543   14.7500 C.3         1 FA4      -0.0514
     10 C10        29.5734    4.8377   14.6831 C.3         1 FA4      -0.0529
     11 C11        29.1312    6.3071   14.9167 C.3         1 FA4      -0.0530
     12 C12        30.2457    7.3464   14.5839 C.3         1 FA4      -0.0529
     13 C13        31.5899    7.2157   15.3718 C.3         1 FA4      -0.0510
     14 C14        32.7118    6.2983   14.7955 C.3         1 FA4      -0.0361
     15 C15        33.2460    6.6245   13.3705 C.3         1 FA4       0.0374
     16 C16        33.6436    8.0133   13.2161 C.2         1 FA4       0.1782
     17 N17        34.6008    8.5261   13.9941 N.am        1 FA4      -0.2657
     18 C18        34.9205    9.9203   14.1509 C.3         1 FA4       0.1325
     19 O19        33.0521    8.7077   12.4025 O.2         1 FA4      -0.3969
     20 C20        36.2200   10.0831   15.0043 C.3         1 FA4      -0.0123
     21 C21        33.7853   10.6151   14.7636 C.2         1 FA4       0.2244
     22 N22        33.0001   11.3954   14.0326 N.am        1 FA4      -0.1623
     23 C23        37.5548    9.9285   14.2127 C.3         1 FA4      -0.0440
     24 C24        38.6858    9.1746   14.9657 C.3         1 FA4      -0.0124
     25 C25        39.1154    9.7676   16.3321 C.3         1 FA4      -0.0354
     26 N26        40.0260   10.9113   16.1945 N.4         1 FA4       0.2185
     27 C27        24.1813    4.1191   12.1700 C.3         1 FA4       0.0939
     28 N28        23.8922    5.4815   12.2956 N.pl3       1 FA4      -0.2620
     29 C29        22.7544    6.0362   12.4992 C.cat       1 FA4       0.2900
     30 N30        22.7480    7.3066   12.6165 N.pl3       1 FA4      -0.2847
     31 N31        21.6383    5.4214   12.5960 N.pl3       1 FA4      -0.2847
     32 O32        31.8938   11.9216   14.4895 O.3         1 FA4      -0.2717
     33 O33        33.4773   10.3616   15.9236 O.2         1 FA4      -0.3944
     34 H1         23.4322    1.3654   16.7099 H           1 FA4       0.0541
     35 H2         25.1093    3.0835   16.6565 H           1 FA4       0.0537
     36 H3         22.4790    2.1098   12.7023 H           1 FA4       0.0538
     37 H4         22.1417    0.8552   14.7188 H           1 FA4       0.0541
     38 H5         26.2421    4.8642   15.6378 H           1 FA4       0.0411
     39 H6         25.6681    5.5282   14.1567 H           1 FA4       0.0411
     40 H7         27.5017    4.7180   13.0560 H           1 FA4       0.0286
     41 H8         26.9669    3.0783   13.3537 H           1 FA4       0.0286
     42 H9         28.9430    2.8233   14.4025 H           1 FA4       0.0267
     43 H10        28.1817    3.5851   15.7920 H           1 FA4       0.0267
     44 H11        30.0466    4.7817   13.6967 H           1 FA4       0.0265
     45 H12        30.3188    4.5775   15.4328 H           1 FA4       0.0265
     46 H13        28.7916    6.4459   15.9527 H           1 FA4       0.0265
     47 H14        28.2778    6.5242   14.2616 H           1 FA4       0.0265
     48 H15        29.8260    8.3359   14.8339 H           1 FA4       0.0265
     49 H16        30.4412    7.3582   13.5086 H           1 FA4       0.0265
     50 H17        31.3650    6.8895   16.3960 H           1 FA4       0.0267
     51 H18        32.0228    8.2123   15.4509 H           1 FA4       0.0267
     52 H19        32.3995    5.2542   14.8034 H           1 FA4       0.0290
     53 H20        33.5566    6.3519   15.4984 H           1 FA4       0.0290
     54 H21        32.4788    6.3579   12.6436 H           1 FA4       0.0502
     55 H22        34.1132    6.0001   13.1649 H           1 FA4       0.0502
     56 H23        35.0753    7.8946   14.5483 H           1 FA4       0.1882
     57 H24        35.1169   10.3450   13.1643 H           1 FA4       0.0799
     58 H25        36.1869    9.3450   15.8124 H           1 FA4       0.0312
     59 H26        36.2304   11.0704   15.4765 H           1 FA4       0.0312
     60 H27        33.2175   11.5258   13.0968 H           1 FA4       0.2217
     61 H28        37.9206   10.9218   13.9252 H           1 FA4       0.0269
     62 H29        37.3685    9.3797   13.2849 H           1 FA4       0.0269
     63 H30        39.5657    9.1413   14.3187 H           1 FA4       0.0317
     64 H31        38.3617    8.1448   15.1230 H           1 FA4       0.0317
     65 H32        39.6388    8.9970   16.9028 H           1 FA4       0.0813
     66 H33        38.2466   10.0785   16.9150 H           1 FA4       0.0813
     67 H34        40.2747   11.2575   17.1257 H           1 FA4       0.1994
     68 H35        39.5732   11.6567   15.6639 H           1 FA4       0.1994
     69 H36        40.8771   10.6144   15.7113 H           1 FA4       0.1994
     70 H37        23.5647    3.6985   11.3693 H           1 FA4       0.0839
     71 H38        25.2146    4.0170   11.8382 H           1 FA4       0.0839
     72 H39        24.6186    6.0689   12.2221 H           1 FA4       0.2664
     73 H40        21.9499    7.7665   12.7687 H           1 FA4       0.2615
     74 H41        23.5533    7.7749   12.5648 H           1 FA4       0.2615
     75 H42        21.5988    4.4936   12.5129 H           1 FA4       0.2615
     76 H43        20.8524    5.9039   12.7468 H           1 FA4       0.2615
     77 H44        31.2843   11.9291   13.7134 H           1 FA4       0.2490
@<TRIPOS>BOND
     1     1     2  ar
     2     1     6  ar
     3     2     3  ar
     4     3     4  ar
     5     3     7   1
     6     4     5  ar
     7     4    27   1
     8     5     6  ar
     9     7     8   1
    10     8     9   1
    11     9    10   1
    12    10    11   1
    13    11    12   1
    14    12    13   1
    15    13    14   1
    16    14    15   1
    17    15    16   1
    18    16    17  am
    19    16    19   2
    20    17    18   1
    21    18    20   1
    22    18    21   1
    23    20    23   1
    24    21    22  am
    25    21    33   2
    26    22    32   1
    27    23    24   1
    28    24    25   1
    29    25    26   1
    30    27    28   1
    31    28    29  ar
    32    29    30  ar
    33    29    31  ar
    34     1    34   1
    35     2    35   1
    36     5    36   1
    37     6    37   1
    38     7    38   1
    39     7    39   1
    40     8    40   1
    41     8    41   1
    42     9    42   1
    43     9    43   1
    44    10    44   1
    45    10    45   1
    46    11    46   1
    47    11    47   1
    48    12    48   1
    49    12    49   1
    50    13    50   1
    51    13    51   1
    52    14    52   1
    53    14    53   1
    54    15    54   1
    55    15    55   1
    56    17    56   1
    57    18    57   1
    58    20    58   1
    59    20    59   1
    60    22    60   1
    61    23    61   1
    62    23    62   1
    63    24    63   1
    64    24    64   1
    65    25    65   1
    66    25    66   1
    67    26    67   1
    68    26    68   1
    69    26    69   1
    70    27    70   1
    71    27    71   1
    72    28    72   1
    73    30    73   1
    74    30    74   1
    75    31    75   1
    76    31    76   1
    77    32    77   1
@<TRIPOS>SUBSTRUCTURE
     1  FA4      1

