@<TRIPOS>MOLECULE
2d1o_ligand_049
    77    77
SMALL
GAST_HUCK
****
This file was generated by PARSER (from files_GN.cpp)

@<TRIPOS>ATOM
      1 C1         24.6954    5.4869   12.8199 C.ar        1 FA4      -0.0755
      2 C2         24.3394    4.6758   13.9087 C.ar        1 FA4      -0.0668
      3 C3         25.3052    3.9189   14.6214 C.ar        1 FA4      -0.0377
      4 C4         26.6898    4.0387   14.2516 C.ar        1 FA4      -0.0050
      5 C5         27.0285    4.9131   13.1823 C.ar        1 FA4      -0.0635
      6 C6         26.0480    5.6057   12.4609 C.ar        1 FA4      -0.0754
      7 C7         24.8171    3.0991   15.7755 C.3         1 FA4      -0.0215
      8 C8         24.4956    1.6130   15.4365 C.3         1 FA4      -0.0443
      9 C9         23.0518    1.3114   14.9246 C.3         1 FA4      -0.0514
     10 C10        22.7869    1.6070   13.4181 C.3         1 FA4      -0.0529
     11 C11        21.6671    0.7520   12.7608 C.3         1 FA4      -0.0530
     12 C12        20.2240    0.9971   13.3075 C.3         1 FA4      -0.0529
     13 C13        19.1576    1.4268   12.2611 C.3         1 FA4      -0.0510
     14 C14        18.5712    0.2590   11.4193 C.3         1 FA4      -0.0361
     15 C15        17.4919    0.6660   10.3724 C.3         1 FA4       0.0374
     16 C16        16.2322    1.0806   10.9632 C.2         1 FA4       0.1782
     17 N17        15.2301    0.2117   11.1244 N.am        1 FA4      -0.2657
     18 C18        14.0651    0.3929   11.9507 C.3         1 FA4       0.1325
     19 O19        16.1544    2.2146   11.4256 O.2         1 FA4      -0.3969
     20 C20        13.2072    1.6523   11.5453 C.3         1 FA4      -0.0123
     21 C21        14.4567    0.3041   13.3548 C.2         1 FA4       0.2244
     22 N22        15.3463   -0.6137   13.7127 N.am        1 FA4      -0.1623
     23 C23        12.3213    1.4516   10.2798 C.3         1 FA4      -0.0440
     24 C24        13.0561    1.5857    8.9165 C.3         1 FA4      -0.0124
     25 C25        12.4928    0.6615    7.8124 C.3         1 FA4      -0.0354
     26 N26        11.0487    0.8254    7.6139 N.4         1 FA4       0.2185
     27 C27        27.8144    3.4036   15.0171 C.3         1 FA4       0.0939
     28 N28        28.9398    3.0699   14.2524 N.pl3       1 FA4      -0.2620
     29 C29        29.9826    3.7769   13.9926 C.cat       1 FA4       0.2900
     30 N30        30.9166    3.2429   13.3080 N.pl3       1 FA4      -0.2847
     31 N31        30.1560    4.9951   14.3560 N.pl3       1 FA4      -0.2847
     32 O32        15.7842   -0.7599   14.9346 O.3         1 FA4      -0.2717
     33 O33        14.0222    1.0846   14.2006 O.2         1 FA4      -0.3944
     34 H1         23.9814    6.0120   12.3083 H           1 FA4       0.0541
     35 H2         23.3494    4.6481   14.1788 H           1 FA4       0.0537
     36 H3         28.0066    5.0687   12.9224 H           1 FA4       0.0538
     37 H4         26.3215    6.2202   11.6931 H           1 FA4       0.0541
     38 H5         23.9362    3.5633   16.2313 H           1 FA4       0.0411
     39 H6         25.5685    3.1306   16.5639 H           1 FA4       0.0411
     40 H7         24.6184    1.0437   16.3623 H           1 FA4       0.0286
     41 H8         25.2290    1.2159   14.7303 H           1 FA4       0.0286
     42 H9         22.3389    1.8639   15.5362 H           1 FA4       0.0267
     43 H10        22.8537    0.2474   15.0923 H           1 FA4       0.0267
     44 H11        23.7077    1.4337   12.8569 H           1 FA4       0.0265
     45 H12        22.5234    2.6527   13.2965 H           1 FA4       0.0265
     46 H13        21.9185   -0.3017   12.8908 H           1 FA4       0.0265
     47 H14        21.6946    0.9531   11.6881 H           1 FA4       0.0265
     48 H15        20.2441    1.7823   14.0680 H           1 FA4       0.0265
     49 H16        19.8704    0.0909   13.8015 H           1 FA4       0.0265
     50 H17        19.5929    2.1775   11.5938 H           1 FA4       0.0267
     51 H18        18.3467    1.9080   12.8127 H           1 FA4       0.0267
     52 H19        18.1427   -0.4910   12.0908 H           1 FA4       0.0290
     53 H20        19.3922   -0.2110   10.8787 H           1 FA4       0.0290
     54 H21        17.3094   -0.1967    9.7232 H           1 FA4       0.0502
     55 H22        17.8710    1.4668    9.7284 H           1 FA4       0.0502
     56 H23        15.3607   -0.6725   10.7522 H           1 FA4       0.1882
     57 H24        13.4297   -0.4850   11.7827 H           1 FA4       0.0799
     58 H25        13.8507    2.5272   11.4043 H           1 FA4       0.0312
     59 H26        12.5216    1.8735   12.3721 H           1 FA4       0.0312
     60 H27        15.6995   -1.2071   13.0211 H           1 FA4       0.2217
     61 H28        11.5257    2.1979   10.2934 H           1 FA4       0.0269
     62 H29        11.8279    0.4745   10.3494 H           1 FA4       0.0269
     63 H30        14.1139    1.3464    9.0222 H           1 FA4       0.0317
     64 H31        12.9999    2.6213    8.5775 H           1 FA4       0.0317
     65 H32        12.6923   -0.3861    8.0730 H           1 FA4       0.0813
     66 H33        12.9983    0.8744    6.8646 H           1 FA4       0.0813
     67 H34        10.7300    0.1845    6.8853 H           1 FA4       0.1994
     68 H35        10.8485    1.7892    7.3327 H           1 FA4       0.1994
     69 H36        10.5559    0.6163    8.4855 H           1 FA4       0.1994
     70 H37        27.4941    2.4633   15.4614 H           1 FA4       0.0839
     71 H38        28.0669    4.0701   15.8515 H           1 FA4       0.0839
     72 H39        28.9360    2.2125   13.8824 H           1 FA4       0.2664
     73 H40        31.6854    3.7313   13.0954 H           1 FA4       0.2615
     74 H41        30.8358    2.3635   13.0086 H           1 FA4       0.2615
     75 H42        29.5074    5.4412   14.8508 H           1 FA4       0.2615
     76 H43        30.9465    5.4370   14.1218 H           1 FA4       0.2615
     77 H44        16.3662   -1.5499   14.8998 H           1 FA4       0.2490
@<TRIPOS>BOND
     1     1     2  ar
     2     1     6  ar
     3     2     3  ar
     4     3     4  ar
     5     3     7   1
     6     4     5  ar
     7     4    27   1
     8     5     6  ar
     9     7     8   1
    10     8     9   1
    11     9    10   1
    12    10    11   1
    13    11    12   1
    14    12    13   1
    15    13    14   1
    16    14    15   1
    17    15    16   1
    18    16    17  am
    19    16    19   2
    20    17    18   1
    21    18    20   1
    22    18    21   1
    23    20    23   1
    24    21    22  am
    25    21    33   2
    26    22    32   1
    27    23    24   1
    28    24    25   1
    29    25    26   1
    30    27    28   1
    31    28    29  ar
    32    29    30  ar
    33    29    31  ar
    34     1    34   1
    35     2    35   1
    36     5    36   1
    37     6    37   1
    38     7    38   1
    39     7    39   1
    40     8    40   1
    41     8    41   1
    42     9    42   1
    43     9    43   1
    44    10    44   1
    45    10    45   1
    46    11    46   1
    47    11    47   1
    48    12    48   1
    49    12    49   1
    50    13    50   1
    51    13    51   1
    52    14    52   1
    53    14    53   1
    54    15    54   1
    55    15    55   1
    56    17    56   1
    57    18    57   1
    58    20    58   1
    59    20    59   1
    60    22    60   1
    61    23    61   1
    62    23    62   1
    63    24    63   1
    64    24    64   1
    65    25    65   1
    66    25    66   1
    67    26    67   1
    68    26    68   1
    69    26    69   1
    70    27    70   1
    71    27    71   1
    72    28    72   1
    73    30    73   1
    74    30    74   1
    75    31    75   1
    76    31    76   1
    77    32    77   1
@<TRIPOS>SUBSTRUCTURE
     1  FA4      1

