@<TRIPOS>MOLECULE
2d1o_ligand_040
    77    77
SMALL
GAST_HUCK
****
This file was generated by PARSER (from files_GN.cpp)

@<TRIPOS>ATOM
      1 C1         26.7925    4.9711   26.2350 C.ar        1 FA4      -0.0755
      2 C2         28.0170    4.5759   25.6796 C.ar        1 FA4      -0.0668
      3 C3         28.1793    3.2909   25.0957 C.ar        1 FA4      -0.0377
      4 C4         27.0869    2.3662   25.1382 C.ar        1 FA4      -0.0050
      5 C5         25.8590    2.7965   25.7000 C.ar        1 FA4      -0.0635
      6 C6         25.7091    4.0847   26.2344 C.ar        1 FA4      -0.0754
      7 C7         29.4753    3.0143   24.3891 C.3         1 FA4      -0.0215
      8 C8         29.4545    3.3604   22.8702 C.3         1 FA4      -0.0443
      9 C9         29.3913    4.8811   22.5548 C.3         1 FA4      -0.0514
     10 C10        28.5336    5.1911   21.3018 C.3         1 FA4      -0.0529
     11 C11        28.6536    6.6631   20.8090 C.3         1 FA4      -0.0530
     12 C12        29.8602    6.9397   19.8723 C.3         1 FA4      -0.0529
     13 C13        29.5473    6.6710   18.3712 C.3         1 FA4      -0.0510
     14 C14        30.7612    6.6906   17.4012 C.3         1 FA4      -0.0361
     15 C15        31.8497    7.7478   17.7370 C.3         1 FA4       0.0374
     16 C16        32.8359    7.8803   16.6885 C.2         1 FA4       0.1782
     17 N17        32.6657    8.8123   15.7482 N.am        1 FA4      -0.2657
     18 C18        33.5806    9.1966   14.7221 C.3         1 FA4       0.1325
     19 O19        33.7838    7.0977   16.6546 O.2         1 FA4      -0.3969
     20 C20        33.6333   10.7630   14.6208 C.3         1 FA4      -0.0123
     21 C21        33.2271    8.5069   13.4823 C.2         1 FA4       0.2244
     22 N22        33.8949    7.4395   13.0750 N.am        1 FA4      -0.1623
     23 C23        32.3502   11.5848   14.2639 C.3         1 FA4      -0.0440
     24 C24        31.4613   12.0709   15.4513 C.3         1 FA4      -0.0124
     25 C25        30.3547   13.0736   15.0157 C.3         1 FA4      -0.0354
     26 N26        29.1145   12.8965   15.7946 N.4         1 FA4       0.2185
     27 C27        27.1835    0.9464   24.6715 C.3         1 FA4       0.0939
     28 N28        27.7453    0.1135   25.6390 N.pl3       1 FA4      -0.2620
     29 C29        27.1304   -0.5158   26.5820 C.cat       1 FA4       0.2900
     30 N30        27.8390   -1.2263   27.3719 N.pl3       1 FA4      -0.2847
     31 N31        25.8670   -0.4734   26.7862 N.pl3       1 FA4      -0.2847
     32 O32        33.5514    6.8099   11.9817 O.3         1 FA4      -0.2717
     33 O33        32.2263    8.8568   12.8698 O.2         1 FA4      -0.3944
     34 H1         26.6881    5.9064   26.6304 H           1 FA4       0.0541
     35 H2         28.7816    5.2574   25.6670 H           1 FA4       0.0537
     36 H3         25.0557    2.1644   25.7329 H           1 FA4       0.0538
     37 H4         24.8120    4.3742   26.6235 H           1 FA4       0.0541
     38 H5         29.7471    1.9631   24.5138 H           1 FA4       0.0411
     39 H6         30.2982    3.5809   24.8412 H           1 FA4       0.0411
     40 H7         28.6059    2.8691   22.3953 H           1 FA4       0.0286
     41 H8         30.3610    2.9506   22.4155 H           1 FA4       0.0286
     42 H9         30.4081    5.2545   22.4120 H           1 FA4       0.0267
     43 H10        28.9509    5.4097   23.4012 H           1 FA4       0.0267
     44 H11        27.4846    5.0068   21.5539 H           1 FA4       0.0265
     45 H12        28.7959    4.5123   20.4924 H           1 FA4       0.0265
     46 H13        28.7226    7.3184   21.6798 H           1 FA4       0.0265
     47 H14        27.7294    6.9346   20.2916 H           1 FA4       0.0265
     48 H15        30.7180    6.3359   20.1776 H           1 FA4       0.0265
     49 H16        30.1434    7.9907   19.9772 H           1 FA4       0.0265
     50 H17        28.8231    7.4107   18.0209 H           1 FA4       0.0267
     51 H18        29.0872    5.6822   18.2751 H           1 FA4       0.0267
     52 H19        30.3773    6.8899   16.3907 H           1 FA4       0.0290
     53 H20        31.2285    5.6956   17.3892 H           1 FA4       0.0290
     54 H21        32.3502    7.4443   18.6688 H           1 FA4       0.0502
     55 H22        31.3674    8.7194   17.9302 H           1 FA4       0.0502
     56 H23        31.8043    9.2546   15.7602 H           1 FA4       0.1882
     57 H24        34.6004    8.8887   14.9931 H           1 FA4       0.0799
     58 H25        34.3837   11.0086   13.8625 H           1 FA4       0.0312
     59 H26        34.0144   11.1489   15.5718 H           1 FA4       0.0312
     60 H27        34.6250    7.1045   13.6276 H           1 FA4       0.2217
     61 H28        31.7302   11.0163   13.5744 H           1 FA4       0.0269
     62 H29        32.6899   12.4815   13.7299 H           1 FA4       0.0269
     63 H30        32.0916   12.5570   16.2061 H           1 FA4       0.0317
     64 H31        30.9647   11.2132   15.9143 H           1 FA4       0.0317
     65 H32        30.1130   12.9299   13.9571 H           1 FA4       0.0813
     66 H33        30.7102   14.1022   15.1550 H           1 FA4       0.0813
     67 H34        28.4505   13.6338   15.5330 H           1 FA4       0.1994
     68 H35        29.3209   12.9577   16.7977 H           1 FA4       0.1994
     69 H36        28.7081   11.9758   15.5796 H           1 FA4       0.1994
     70 H37        27.8037    0.8920   23.7806 H           1 FA4       0.0839
     71 H38        26.2125    0.5439   24.3645 H           1 FA4       0.0839
     72 H39        28.6686   -0.0228   25.5866 H           1 FA4       0.2664
     73 H40        27.4340   -1.6929   28.0707 H           1 FA4       0.2615
     74 H41        28.7657   -1.2767   27.2554 H           1 FA4       0.2615
     75 H42        25.3164    0.0357   26.2306 H           1 FA4       0.2615
     76 H43        25.4976   -0.9620   27.4946 H           1 FA4       0.2615
     77 H44        33.9462    5.9158   12.0733 H           1 FA4       0.2490
@<TRIPOS>BOND
     1     1     2  ar
     2     1     6  ar
     3     2     3  ar
     4     3     4  ar
     5     3     7   1
     6     4     5  ar
     7     4    27   1
     8     5     6  ar
     9     7     8   1
    10     8     9   1
    11     9    10   1
    12    10    11   1
    13    11    12   1
    14    12    13   1
    15    13    14   1
    16    14    15   1
    17    15    16   1
    18    16    17  am
    19    16    19   2
    20    17    18   1
    21    18    20   1
    22    18    21   1
    23    20    23   1
    24    21    22  am
    25    21    33   2
    26    22    32   1
    27    23    24   1
    28    24    25   1
    29    25    26   1
    30    27    28   1
    31    28    29  ar
    32    29    30  ar
    33    29    31  ar
    34     1    34   1
    35     2    35   1
    36     5    36   1
    37     6    37   1
    38     7    38   1
    39     7    39   1
    40     8    40   1
    41     8    41   1
    42     9    42   1
    43     9    43   1
    44    10    44   1
    45    10    45   1
    46    11    46   1
    47    11    47   1
    48    12    48   1
    49    12    49   1
    50    13    50   1
    51    13    51   1
    52    14    52   1
    53    14    53   1
    54    15    54   1
    55    15    55   1
    56    17    56   1
    57    18    57   1
    58    20    58   1
    59    20    59   1
    60    22    60   1
    61    23    61   1
    62    23    62   1
    63    24    63   1
    64    24    64   1
    65    25    65   1
    66    25    66   1
    67    26    67   1
    68    26    68   1
    69    26    69   1
    70    27    70   1
    71    27    71   1
    72    28    72   1
    73    30    73   1
    74    30    74   1
    75    31    75   1
    76    31    76   1
    77    32    77   1
@<TRIPOS>SUBSTRUCTURE
     1  FA4      1

