@<TRIPOS>MOLECULE
2d3u_ligand_033
    40    42
SMALL
GAST_HUCK
****
This file was generated by PARSER (from files_GN.cpp)

@<TRIPOS>ATOM
      1 C1          3.1685   34.6820   84.3423 C.ar        1 CCT      -0.0292
      2 C2          2.4003   35.0809   85.4515 C.ar        1 CCT       0.0919
      3 C3          1.6258   36.2552   85.3619 C.ar        1 CCT      -0.0292
      4 C4          1.6266   37.0192   84.1787 C.ar        1 CCT      -0.0447
      5 C5          2.3911   36.6376   83.0511 C.ar        1 CCT      -0.0014
      6 C6          3.1656   35.4505   83.1628 C.ar        1 CCT      -0.0447
      7 C7          1.8762   39.0203   79.8760 C.2         1 CCT       0.0659
      8 C8          2.6964   37.9483   79.5160 C.2         1 CCT       0.0654
      9 C9          2.9531   37.0857   80.5989 C.2         1 CCT      -0.0309
     10 C10         2.3529   37.3945   81.8386 C.2         1 CCT       0.0389
     11 S11         1.4906   38.8602   81.5402 S.3         1 CCT      -0.0497
     12 C12         2.4105   34.3739   86.5369 C.1         1 CCT       0.0956
     13 N13         2.4277   33.7340   87.4954 N.1         1 CCT      -0.3326
     14 C14         1.4579   40.0795   79.0626 C.2         1 CCT       0.0483
     15 O15         2.1695   41.2389   79.1036 O.co2       1 CCT      -0.5727
     16 O16         0.1532   40.1447   78.6790 O.co2       1 CCT      -0.5727
     17 N17         3.0765   37.7041   78.2356 N.am        1 CCT      -0.1970
     18 S18         4.6630   37.9656   77.7121 S.o2        1 CCT       0.0842
     19 C19         5.5123   35.3741   76.9452 C.ar        1 CCT      -0.0191
     20 C20         5.4885   36.7803   76.6987 C.ar        1 CCT       0.1144
     21 C21         6.2166   37.2845   75.5925 C.ar        1 CCT      -0.0414
     22 C22         6.8981   36.4281   74.7148 C.ar        1 CCT      -0.0669
     23 C23         6.8802   35.0477   74.9362 C.ar        1 CCT      -0.0685
     24 C24         6.2021   34.5275   76.0467 C.ar        1 CCT      -0.0587
     25 C25         4.8817   34.7067   78.1140 C.3         1 CCT      -0.0292
     26 O26         5.5903   38.2420   78.9774 O.2         1 CCT      -0.1463
     27 O27         4.6032   39.3807   76.9769 O.2         1 CCT      -0.1463
     28 H1          3.7363   33.8327   84.3750 H           1 CCT       0.0708
     29 H2          1.0524   36.5673   86.1483 H           1 CCT       0.0708
     30 H3          1.0416   37.8623   84.1523 H           1 CCT       0.0633
     31 H4          3.7480   35.1190   82.3905 H           1 CCT       0.0633
     32 H5          3.5203   36.2348   80.4475 H           1 CCT       0.0467
     33 H6          2.3932   37.8729   77.5497 H           1 CCT       0.2106
     34 H7          6.2665   38.2916   75.4082 H           1 CCT       0.0619
     35 H8          7.4081   36.8099   73.9171 H           1 CCT       0.0560
     36 H9          7.3718   34.4118   74.2939 H           1 CCT       0.0599
     37 H10         6.2256   33.5105   76.2037 H           1 CCT       0.0557
     38 H11         4.4018   35.4189   78.7910 H           1 CCT       0.0391
     39 H12         5.6514   34.1650   78.6839 H           1 CCT       0.0391
     40 H13         4.1288   33.9911   77.7650 H           1 CCT       0.0391
@<TRIPOS>BOND
     1     1     2  ar
     2     6     1  ar
     3     3     2  ar
     4     2    12   1
     5     4     3  ar
     6     5     4  ar
     7     5     6  ar
     8    10     5   1
     9     8     7   2
    10     7    11   1
    11     7    14   1
    12     9     8   1
    13     8    17   1
    14     9    10   2
    15    10    11   1
    16    12    13   3
    17    14    15  ar
    18    14    16  ar
    19    17    18  am
    20    18    20   1
    21    18    26   2
    22    18    27   2
    23    20    19  ar
    24    19    24  ar
    25    19    25   1
    26    20    21  ar
    27    21    22  ar
    28    22    23  ar
    29    23    24  ar
    30     1    28   1
    31     3    29   1
    32     4    30   1
    33     6    31   1
    34     9    32   1
    35    17    33   1
    36    21    34   1
    37    22    35   1
    38    23    36   1
    39    24    37   1
    40    25    38   1
    41    25    39   1
    42    25    40   1
@<TRIPOS>SUBSTRUCTURE
     1  CCT      1

