@<TRIPOS>MOLECULE
2d3u_ligand_036
    40    42
SMALL
GAST_HUCK
****
This file was generated by PARSER (from files_GN.cpp)

@<TRIPOS>ATOM
      1 C1         -4.4698   37.3827   83.2235 C.ar        1 CCT      -0.0292
      2 C2         -4.3222   35.9849   83.1194 C.ar        1 CCT       0.0919
      3 C3         -3.2587   35.4612   82.3566 C.ar        1 CCT      -0.0292
      4 C4         -2.3593   36.3279   81.7058 C.ar        1 CCT      -0.0447
      5 C5         -2.4960   37.7378   81.7929 C.ar        1 CCT      -0.0014
      6 C6         -3.5675   38.2429   82.5702 C.ar        1 CCT      -0.0447
      7 C7         -0.1059   40.5898   80.3017 C.2         1 CCT       0.0659
      8 C8          0.1600   39.3639   79.6784 C.2         1 CCT       0.0654
      9 C9         -0.6848   38.3213   80.1027 C.2         1 CCT      -0.0309
     10 C10        -1.5813   38.6214   81.1410 C.2         1 CCT       0.0389
     11 S11        -1.3567   40.3059   81.4481 S.3         1 CCT      -0.0497
     12 C12        -5.1600   35.1891   83.7234 C.1         1 CCT       0.0956
     13 N13        -5.8996   34.4911   84.2559 N.1         1 CCT      -0.3326
     14 C14         0.4738   41.8264   80.0115 C.2         1 CCT       0.0483
     15 O15         1.6765   42.1268   80.5371 O.co2       1 CCT      -0.5727
     16 O16        -0.2924   42.8325   79.5410 O.co2       1 CCT      -0.5727
     17 N17         1.0266   39.1966   78.6512 N.am        1 CCT      -0.1970
     18 S18         2.6856   38.9776   78.8694 S.o2        1 CCT       0.0842
     19 C19         4.7073   37.1198   79.4500 C.ar        1 CCT      -0.0191
     20 C20         3.3155   37.3983   79.2842 C.ar        1 CCT       0.1144
     21 C21         2.3752   36.3714   79.5240 C.ar        1 CCT      -0.0414
     22 C22         2.7820   35.0986   79.9524 C.ar        1 CCT      -0.0669
     23 C23         4.1452   34.8242   80.1292 C.ar        1 CCT      -0.0685
     24 C24         5.0960   35.8248   79.8750 C.ar        1 CCT      -0.0587
     25 C25         5.8131   38.0884   79.2066 C.3         1 CCT      -0.0292
     26 O26         3.2906   40.0674   79.8557 O.2         1 CCT      -0.1463
     27 O27         3.3169   39.3750   77.4647 O.2         1 CCT      -0.1463
     28 H1         -5.2335   37.7898   83.7723 H           1 CCT       0.0708
     29 H2         -3.1258   34.4481   82.2696 H           1 CCT       0.0708
     30 H3         -1.5909   35.9066   81.1796 H           1 CCT       0.0633
     31 H4         -3.7152   39.2498   82.6644 H           1 CCT       0.0633
     32 H5         -0.6626   37.4128   79.6490 H           1 CCT       0.0467
     33 H6          0.7189   39.4286   77.7661 H           1 CCT       0.2106
     34 H7          1.3829   36.5347   79.3978 H           1 CCT       0.0619
     35 H8          2.0873   34.3720   80.1416 H           1 CCT       0.0560
     36 H9          4.4457   33.8960   80.4336 H           1 CCT       0.0599
     37 H10         6.0859   35.5963   80.0037 H           1 CCT       0.0557
     38 H11         5.4809   39.0558   78.8436 H           1 CCT       0.0391
     39 H12         6.4983   37.6833   78.4604 H           1 CCT       0.0391
     40 H13         6.3663   38.2556   80.1311 H           1 CCT       0.0391
@<TRIPOS>BOND
     1     1     2  ar
     2     6     1  ar
     3     3     2  ar
     4     2    12   1
     5     4     3  ar
     6     5     4  ar
     7     5     6  ar
     8    10     5   1
     9     8     7   2
    10     7    11   1
    11     7    14   1
    12     9     8   1
    13     8    17   1
    14     9    10   2
    15    10    11   1
    16    12    13   3
    17    14    15  ar
    18    14    16  ar
    19    17    18  am
    20    18    20   1
    21    18    26   2
    22    18    27   2
    23    20    19  ar
    24    19    24  ar
    25    19    25   1
    26    20    21  ar
    27    21    22  ar
    28    22    23  ar
    29    23    24  ar
    30     1    28   1
    31     3    29   1
    32     4    30   1
    33     6    31   1
    34     9    32   1
    35    17    33   1
    36    21    34   1
    37    22    35   1
    38    23    36   1
    39    24    37   1
    40    25    38   1
    41    25    39   1
    42    25    40   1
@<TRIPOS>SUBSTRUCTURE
     1  CCT      1

