@<TRIPOS>MOLECULE
2d3u_ligand_023
    40    42
SMALL
GAST_HUCK
****
This file was generated by PARSER (from files_GN.cpp)

@<TRIPOS>ATOM
      1 C1         -1.2098   35.2160   82.0674 C.ar        1 CCT      -0.0292
      2 C2         -1.1353   34.0954   82.9224 C.ar        1 CCT       0.0919
      3 C3          0.1069   33.4538   83.1050 C.ar        1 CCT      -0.0292
      4 C4          1.2522   33.9186   82.4299 C.ar        1 CCT      -0.0447
      5 C5          1.1973   35.0306   81.5508 C.ar        1 CCT      -0.0014
      6 C6         -0.0581   35.6721   81.3916 C.ar        1 CCT      -0.0447
      7 C7          4.7504   36.0076   79.9999 C.2         1 CCT       0.0659
      8 C8          3.7201   36.5734   79.2314 C.2         1 CCT       0.0654
      9 C9          2.4305   36.2716   79.7065 C.2         1 CCT      -0.0309
     10 C10         2.3551   35.4827   80.8615 C.2         1 CCT       0.0389
     11 S11         3.9885   35.1512   81.2864 S.3         1 CCT      -0.0497
     12 C12        -2.2003   33.6606   83.5272 C.1         1 CCT       0.0956
     13 N13        -3.1388   33.2743   84.0672 N.1         1 CCT      -0.3326
     14 C14         6.1543   36.0704   79.8250 C.2         1 CCT       0.0483
     15 O15         6.6994   36.4189   78.6283 O.co2       1 CCT      -0.5727
     16 O16         6.9998   35.7403   80.8352 O.co2       1 CCT      -0.5727
     17 N17         3.9261   37.3263   78.1217 N.am        1 CCT      -0.1970
     18 S18         4.1862   38.9900   78.2652 S.o2        1 CCT       0.0842
     19 C19         3.0464   41.3662   79.2070 C.ar        1 CCT      -0.0191
     20 C20         2.8597   40.0404   78.7175 C.ar        1 CCT       0.1144
     21 C21         1.5581   39.5025   78.6416 C.ar        1 CCT      -0.0414
     22 C22         0.4510   40.2302   79.1063 C.ar        1 CCT      -0.0669
     23 C23         0.6330   41.5147   79.6384 C.ar        1 CCT      -0.0685
     24 C24         1.9189   42.0762   79.6847 C.ar        1 CCT      -0.0587
     25 C25         4.3581   42.0776   79.2715 C.3         1 CCT      -0.0292
     26 O26         4.6604   39.4865   76.8320 O.2         1 CCT      -0.1463
     27 O27         5.4400   39.2244   79.2181 O.2         1 CCT      -0.1463
     28 H1         -2.1027   35.7103   81.9214 H           1 CCT       0.0708
     29 H2          0.1861   32.6371   83.7215 H           1 CCT       0.0708
     30 H3          2.1261   33.4110   82.5783 H           1 CCT       0.0633
     31 H4         -0.1581   36.4935   80.7883 H           1 CCT       0.0633
     32 H5          1.6038   36.5919   79.2093 H           1 CCT       0.0467
     33 H6          4.3705   36.8982   77.3728 H           1 CCT       0.2106
     34 H7          1.3987   38.5668   78.2587 H           1 CCT       0.0619
     35 H8         -0.4841   39.8153   79.0685 H           1 CCT       0.0560
     36 H9         -0.1666   42.0392   79.9832 H           1 CCT       0.0599
     37 H10         2.0248   43.0215   80.0698 H           1 CCT       0.0557
     38 H11         5.1487   41.5962   78.7025 H           1 CCT       0.0391
     39 H12         4.6772   42.1541   80.3132 H           1 CCT       0.0391
     40 H13         4.2518   43.0898   78.8660 H           1 CCT       0.0391
@<TRIPOS>BOND
     1     1     2  ar
     2     6     1  ar
     3     3     2  ar
     4     2    12   1
     5     4     3  ar
     6     5     4  ar
     7     5     6  ar
     8    10     5   1
     9     8     7   2
    10     7    11   1
    11     7    14   1
    12     9     8   1
    13     8    17   1
    14     9    10   2
    15    10    11   1
    16    12    13   3
    17    14    15  ar
    18    14    16  ar
    19    17    18  am
    20    18    20   1
    21    18    26   2
    22    18    27   2
    23    20    19  ar
    24    19    24  ar
    25    19    25   1
    26    20    21  ar
    27    21    22  ar
    28    22    23  ar
    29    23    24  ar
    30     1    28   1
    31     3    29   1
    32     4    30   1
    33     6    31   1
    34     9    32   1
    35    17    33   1
    36    21    34   1
    37    22    35   1
    38    23    36   1
    39    24    37   1
    40    25    38   1
    41    25    39   1
    42    25    40   1
@<TRIPOS>SUBSTRUCTURE
     1  CCT      1

