@<TRIPOS>MOLECULE
2d3u_ligand_011
    40    42
SMALL
GAST_HUCK
****
This file was generated by PARSER (from files_GN.cpp)

@<TRIPOS>ATOM
      1 C1          2.0701   29.4927   77.8103 C.ar        1 CCT      -0.0292
      2 C2          2.5669   28.8188   76.6770 C.ar        1 CCT       0.0919
      3 C3          3.6013   29.4087   75.9220 C.ar        1 CCT      -0.0292
      4 C4          4.1327   30.6544   76.3060 C.ar        1 CCT      -0.0447
      5 C5          3.6459   31.3526   77.4406 C.ar        1 CCT      -0.0014
      6 C6          2.6049   30.7396   78.1839 C.ar        1 CCT      -0.0447
      7 C7          5.0026   34.7484   79.0889 C.2         1 CCT       0.0659
      8 C8          5.5551   34.5908   77.8073 C.2         1 CCT       0.0654
      9 C9          5.0854   33.4403   77.1390 C.2         1 CCT      -0.0309
     10 C10         4.2030   32.6073   77.8468 C.2         1 CCT       0.0389
     11 S11         3.9536   33.4135   79.3510 S.3         1 CCT      -0.0497
     12 C12         2.0866   27.6545   76.3368 C.1         1 CCT       0.0956
     13 N13         1.6651   26.6286   76.0399 N.1         1 CCT      -0.3326
     14 C14         5.1546   35.7992   79.9960 C.2         1 CCT       0.0483
     15 O15         6.1100   35.7016   80.9462 O.co2       1 CCT      -0.5727
     16 O16         4.0885   36.5885   80.2533 O.co2       1 CCT      -0.5727
     17 N17         6.4183   35.4042   77.1401 N.am        1 CCT      -0.1970
     18 S18         7.6204   36.3700   77.8236 S.o2        1 CCT       0.0842
     19 C19        10.0406   36.4961   76.3354 C.ar        1 CCT      -0.0191
     20 C20         8.6916   36.9226   76.5469 C.ar        1 CCT       0.1144
     21 C21         8.1396   37.9085   75.6890 C.ar        1 CCT      -0.0414
     22 C22         8.9103   38.5159   74.6872 C.ar        1 CCT      -0.0669
     23 C23        10.2512   38.1470   74.5224 C.ar        1 CCT      -0.0685
     24 C24        10.8106   37.1500   75.3381 C.ar        1 CCT      -0.0587
     25 C25        10.7308   35.3998   77.0754 C.3         1 CCT      -0.0292
     26 O26         8.3275   35.6535   79.0552 O.2         1 CCT      -0.1463
     27 O27         6.9068   37.6675   78.4012 O.2         1 CCT      -0.1463
     28 H1          1.3194   29.0826   78.3760 H           1 CCT       0.0708
     29 H2          3.9829   28.9368   75.0958 H           1 CCT       0.0708
     30 H3          4.8992   31.0284   75.7450 H           1 CCT       0.0633
     31 H4          2.2171   31.1899   79.0144 H           1 CCT       0.0633
     32 H5          5.3865   33.2348   76.1851 H           1 CCT       0.0467
     33 H6          6.4955   35.2524   76.1846 H           1 CCT       0.2106
     34 H7          7.1688   38.2161   75.7960 H           1 CCT       0.0619
     35 H8          8.4976   39.2324   74.0899 H           1 CCT       0.0560
     36 H9         10.8159   38.5881   73.7954 H           1 CCT       0.0599
     37 H10        11.7883   36.8889   75.1838 H           1 CCT       0.0557
     38 H11        10.0501   34.7411   77.6071 H           1 CCT       0.0391
     39 H12        11.4415   35.8320   77.7872 H           1 CCT       0.0391
     40 H13        11.2820   34.7659   76.3696 H           1 CCT       0.0391
@<TRIPOS>BOND
     1     1     2  ar
     2     6     1  ar
     3     3     2  ar
     4     2    12   1
     5     4     3  ar
     6     5     4  ar
     7     5     6  ar
     8    10     5   1
     9     8     7   2
    10     7    11   1
    11     7    14   1
    12     9     8   1
    13     8    17   1
    14     9    10   2
    15    10    11   1
    16    12    13   3
    17    14    15  ar
    18    14    16  ar
    19    17    18  am
    20    18    20   1
    21    18    26   2
    22    18    27   2
    23    20    19  ar
    24    19    24  ar
    25    19    25   1
    26    20    21  ar
    27    21    22  ar
    28    22    23  ar
    29    23    24  ar
    30     1    28   1
    31     3    29   1
    32     4    30   1
    33     6    31   1
    34     9    32   1
    35    17    33   1
    36    21    34   1
    37    22    35   1
    38    23    36   1
    39    24    37   1
    40    25    38   1
    41    25    39   1
    42    25    40   1
@<TRIPOS>SUBSTRUCTURE
     1  CCT      1

