@<TRIPOS>MOLECULE
2d3u_ligand_004
    40    42
SMALL
GAST_HUCK
****
This file was generated by PARSER (from files_GN.cpp)

@<TRIPOS>ATOM
      1 C1          9.9278   35.4985   82.9698 C.ar        1 CCT      -0.0292
      2 C2         10.1780   34.2837   83.6440 C.ar        1 CCT       0.0919
      3 C3          9.5768   33.0959   83.1734 C.ar        1 CCT      -0.0292
      4 C4          8.7452   33.1221   82.0383 C.ar        1 CCT      -0.0447
      5 C5          8.4838   34.3334   81.3525 C.ar        1 CCT      -0.0014
      6 C6          9.0898   35.5185   81.8414 C.ar        1 CCT      -0.0447
      7 C7          6.5906   33.9175   77.8786 C.2         1 CCT       0.0659
      8 C8          6.4023   35.2241   78.3639 C.2         1 CCT       0.0654
      9 C9          6.9629   35.4345   79.6367 C.2         1 CCT      -0.0309
     10 C10         7.6792   34.3561   80.1812 C.2         1 CCT       0.0389
     11 S11         7.5356   33.0799   79.0300 S.3         1 CCT      -0.0497
     12 C12        10.9720   34.2576   84.6711 C.1         1 CCT       0.0956
     13 N13        11.6783   34.2327   85.5804 N.1         1 CCT      -0.3326
     14 C14         6.1508   33.3652   76.6808 C.2         1 CCT       0.0483
     15 O15         7.0335   32.8302   75.7922 O.co2       1 CCT      -0.5727
     16 O16         4.8187   33.2481   76.4274 O.co2       1 CCT      -0.5727
     17 N17         5.9331   36.2996   77.6708 N.am        1 CCT      -0.1970
     18 S18         6.5372   36.7130   76.1489 S.o2        1 CCT       0.0842
     19 C19         8.8209   36.9003   74.5003 C.ar        1 CCT      -0.0191
     20 C20         8.2664   36.6839   75.8005 C.ar        1 CCT       0.1144
     21 C21         9.1480   36.3898   76.8761 C.ar        1 CCT      -0.0414
     22 C22        10.5263   36.2130   76.6706 C.ar        1 CCT      -0.0669
     23 C23        11.0668   36.3833   75.3891 C.ar        1 CCT      -0.0685
     24 C24        10.2202   36.7409   74.3222 C.ar        1 CCT      -0.0587
     25 C25         8.0481   37.3095   73.3028 C.3         1 CCT      -0.0292
     26 O26         6.0844   38.2261   75.9802 O.2         1 CCT      -0.1463
     27 O27         5.6903   35.9934   75.0123 O.2         1 CCT      -0.1463
     28 H1         10.3549   36.3716   83.2883 H           1 CCT       0.0708
     29 H2          9.7364   32.2050   83.6531 H           1 CCT       0.0708
     30 H3          8.3216   32.2453   81.7289 H           1 CCT       0.0633
     31 H4          8.9539   36.4105   81.3597 H           1 CCT       0.0633
     32 H5          6.9281   36.3479   80.0951 H           1 CCT       0.0467
     33 H6          5.6169   37.0447   78.2058 H           1 CCT       0.2106
     34 H7          8.8006   36.3078   77.8359 H           1 CCT       0.0619
     35 H8         11.1319   35.9818   77.4571 H           1 CCT       0.0560
     36 H9         12.0728   36.2756   75.2474 H           1 CCT       0.0599
     37 H10        10.6487   36.8985   73.4028 H           1 CCT       0.0557
     38 H11         7.0021   37.5258   73.4844 H           1 CCT       0.0391
     39 H12         8.0953   36.5263   72.5414 H           1 CCT       0.0391
     40 H13         8.4803   38.2235   72.8726 H           1 CCT       0.0391
@<TRIPOS>BOND
     1     1     2  ar
     2     6     1  ar
     3     3     2  ar
     4     2    12   1
     5     4     3  ar
     6     5     4  ar
     7     5     6  ar
     8    10     5   1
     9     8     7   2
    10     7    11   1
    11     7    14   1
    12     9     8   1
    13     8    17   1
    14     9    10   2
    15    10    11   1
    16    12    13   3
    17    14    15  ar
    18    14    16  ar
    19    17    18  am
    20    18    20   1
    21    18    26   2
    22    18    27   2
    23    20    19  ar
    24    19    24  ar
    25    19    25   1
    26    20    21  ar
    27    21    22  ar
    28    22    23  ar
    29    23    24  ar
    30     1    28   1
    31     3    29   1
    32     4    30   1
    33     6    31   1
    34     9    32   1
    35    17    33   1
    36    21    34   1
    37    22    35   1
    38    23    36   1
    39    24    37   1
    40    25    38   1
    41    25    39   1
    42    25    40   1
@<TRIPOS>SUBSTRUCTURE
     1  CCT      1

