@<TRIPOS>MOLECULE
2d3u_ligand_019
    40    42
SMALL
GAST_HUCK
****
This file was generated by PARSER (from files_GN.cpp)

@<TRIPOS>ATOM
      1 C1          8.9465   29.4817   75.6706 C.ar        1 CCT      -0.0292
      2 C2          9.1985   29.4444   74.2830 C.ar        1 CCT       0.0919
      3 C3          8.7073   30.4836   73.4652 C.ar        1 CCT      -0.0292
      4 C4          7.9775   31.5444   74.0291 C.ar        1 CCT      -0.0447
      5 C5          7.7062   31.5942   75.4195 C.ar        1 CCT      -0.0014
      6 C6          8.2071   30.5403   76.2260 C.ar        1 CCT      -0.0447
      7 C7          5.4706   34.2239   77.4504 C.2         1 CCT       0.0659
      8 C8          5.9751   34.8198   76.2826 C.2         1 CCT       0.0654
      9 C9          6.7572   33.9584   75.4871 C.2         1 CCT      -0.0309
     10 C10         6.9513   32.6585   75.9883 C.2         1 CCT       0.0389
     11 S11         6.0665   32.6080   77.4640 S.3         1 CCT      -0.0497
     12 C12         9.8814   28.4613   73.7622 C.1         1 CCT       0.0956
     13 N13        10.4837   27.5954   73.3069 N.1         1 CCT      -0.3326
     14 C14         4.6449   34.7665   78.4535 C.2         1 CCT       0.0483
     15 O15         4.0292   33.9651   79.3576 O.co2       1 CCT      -0.5727
     16 O16         4.3978   36.0978   78.5317 O.co2       1 CCT      -0.5727
     17 N17         5.7568   36.1086   75.9464 N.am        1 CCT      -0.1970
     18 S18         6.8150   37.3146   76.4630 S.o2        1 CCT       0.0842
     19 C19         9.3307   37.6323   75.1979 C.ar        1 CCT      -0.0191
     20 C20         8.5134   36.9990   76.1899 C.ar        1 CCT       0.1144
     21 C21         9.1013   36.0300   77.0354 C.ar        1 CCT      -0.0414
     22 C22        10.4587   35.6888   76.9362 C.ar        1 CCT      -0.0669
     23 C23        11.2649   36.3325   75.9870 C.ar        1 CCT      -0.0685
     24 C24        10.7118   37.3041   75.1346 C.ar        1 CCT      -0.0587
     25 C25         8.8619   38.6158   74.1931 C.3         1 CCT      -0.0292
     26 O26         6.5585   37.5082   78.0257 O.2         1 CCT      -0.1463
     27 O27         6.2754   38.6989   75.8890 O.2         1 CCT      -0.1463
     28 H1          9.2989   28.7410   76.2848 H           1 CCT       0.0708
     29 H2          8.8735   30.4741   72.4539 H           1 CCT       0.0708
     30 H3          7.6257   32.2714   73.4030 H           1 CCT       0.0633
     31 H4          8.0536   30.5362   77.2355 H           1 CCT       0.0633
     32 H5          7.1868   34.2860   74.6219 H           1 CCT       0.0467
     33 H6          5.1660   36.3053   75.1970 H           1 CCT       0.2106
     34 H7          8.5407   35.5462   77.7434 H           1 CCT       0.0619
     35 H8         10.8622   34.9827   77.5534 H           1 CCT       0.0560
     36 H9         12.2672   36.0911   75.9119 H           1 CCT       0.0599
     37 H10        11.3256   37.7524   74.4508 H           1 CCT       0.0557
     38 H11         7.7725   38.6847   74.1425 H           1 CCT       0.0391
     39 H12         9.2112   38.3312   73.1956 H           1 CCT       0.0391
     40 H13         9.2660   39.6064   74.4380 H           1 CCT       0.0391
@<TRIPOS>BOND
     1     1     2  ar
     2     6     1  ar
     3     3     2  ar
     4     2    12   1
     5     4     3  ar
     6     5     4  ar
     7     5     6  ar
     8    10     5   1
     9     8     7   2
    10     7    11   1
    11     7    14   1
    12     9     8   1
    13     8    17   1
    14     9    10   2
    15    10    11   1
    16    12    13   3
    17    14    15  ar
    18    14    16  ar
    19    17    18  am
    20    18    20   1
    21    18    26   2
    22    18    27   2
    23    20    19  ar
    24    19    24  ar
    25    19    25   1
    26    20    21  ar
    27    21    22  ar
    28    22    23  ar
    29    23    24  ar
    30     1    28   1
    31     3    29   1
    32     4    30   1
    33     6    31   1
    34     9    32   1
    35    17    33   1
    36    21    34   1
    37    22    35   1
    38    23    36   1
    39    24    37   1
    40    25    38   1
    41    25    39   1
    42    25    40   1
@<TRIPOS>SUBSTRUCTURE
     1  CCT      1

