@<TRIPOS>MOLECULE
2d3u_ligand_015
    40    42
SMALL
GAST_HUCK
****
This file was generated by PARSER (from files_GN.cpp)

@<TRIPOS>ATOM
      1 C1          4.3717   32.2719   80.5221 C.ar        1 CCT      -0.0292
      2 C2          3.1682   31.5529   80.6559 C.ar        1 CCT       0.0919
      3 C3          1.9462   32.1934   80.3769 C.ar        1 CCT      -0.0292
      4 C4          1.9335   33.5443   79.9714 C.ar        1 CCT      -0.0447
      5 C5          3.1380   34.2904   79.8570 C.ar        1 CCT      -0.0014
      6 C6          4.3512   33.6212   80.1207 C.ar        1 CCT      -0.0447
      7 C7          3.6296   38.0304   78.5330 C.2         1 CCT       0.0659
      8 C8          2.2948   37.8275   78.8682 C.2         1 CCT       0.0654
      9 C9          2.0268   36.5392   79.3779 C.2         1 CCT      -0.0309
     10 C10         3.1257   35.6543   79.4494 C.2         1 CCT       0.0389
     11 S11         4.4718   36.5815   78.9071 S.3         1 CCT      -0.0497
     12 C12         3.1804   30.3050   81.0353 C.1         1 CCT       0.0956
     13 N13         3.1876   29.2062   81.3703 N.1         1 CCT      -0.3326
     14 C14         4.2248   39.1938   78.0435 C.2         1 CCT       0.0483
     15 O15         5.2852   39.7340   78.6975 O.co2       1 CCT      -0.5727
     16 O16         4.0301   39.5428   76.7406 O.co2       1 CCT      -0.5727
     17 N17         1.3747   38.8000   78.7838 N.am        1 CCT      -0.1970
     18 S18         0.6450   39.5019   80.1311 S.o2        1 CCT       0.0842
     19 C19        -0.0036   42.0876   81.0896 C.ar        1 CCT      -0.0191
     20 C20         0.7987   41.2494   80.2535 C.ar        1 CCT       0.1144
     21 C21         1.8133   41.8481   79.4650 C.ar        1 CCT      -0.0414
     22 C22         2.0272   43.2373   79.4756 C.ar        1 CCT      -0.0669
     23 C23         1.2235   44.0601   80.2774 C.ar        1 CCT      -0.0685
     24 C24         0.2192   43.4867   81.0687 C.ar        1 CCT      -0.0587
     25 C25        -1.0614   41.6314   82.0183 C.3         1 CCT      -0.0292
     26 O26         1.3271   38.8882   81.4249 O.2         1 CCT      -0.1463
     27 O27        -0.8442   38.9467   80.1333 O.2         1 CCT      -0.1463
     28 H1          5.2767   31.8224   80.7165 H           1 CCT       0.0708
     29 H2          1.0594   31.6976   80.4582 H           1 CCT       0.0708
     30 H3          1.0297   33.9640   79.7516 H           1 CCT       0.0633
     31 H4          5.2476   34.1017   80.0388 H           1 CCT       0.0633
     32 H5          1.0738   36.2804   79.6712 H           1 CCT       0.0467
     33 H6          1.1427   39.1514   77.8790 H           1 CCT       0.2106
     34 H7          2.4252   41.2776   78.8645 H           1 CCT       0.0619
     35 H8          2.7674   43.6481   78.9036 H           1 CCT       0.0560
     36 H9          1.3760   45.0709   80.2987 H           1 CCT       0.0599
     37 H10        -0.3484   44.1106   81.6525 H           1 CCT       0.0557
     38 H11        -1.0934   40.5405   82.1376 H           1 CCT       0.0391
     39 H12        -2.0375   41.9697   81.6575 H           1 CCT       0.0391
     40 H13        -0.8932   42.0498   83.0122 H           1 CCT       0.0391
@<TRIPOS>BOND
     1     1     2  ar
     2     6     1  ar
     3     3     2  ar
     4     2    12   1
     5     4     3  ar
     6     5     4  ar
     7     5     6  ar
     8    10     5   1
     9     8     7   2
    10     7    11   1
    11     7    14   1
    12     9     8   1
    13     8    17   1
    14     9    10   2
    15    10    11   1
    16    12    13   3
    17    14    15  ar
    18    14    16  ar
    19    17    18  am
    20    18    20   1
    21    18    26   2
    22    18    27   2
    23    20    19  ar
    24    19    24  ar
    25    19    25   1
    26    20    21  ar
    27    21    22  ar
    28    22    23  ar
    29    23    24  ar
    30     1    28   1
    31     3    29   1
    32     4    30   1
    33     6    31   1
    34     9    32   1
    35    17    33   1
    36    21    34   1
    37    22    35   1
    38    23    36   1
    39    24    37   1
    40    25    38   1
    41    25    39   1
    42    25    40   1
@<TRIPOS>SUBSTRUCTURE
     1  CCT      1

