@<TRIPOS>MOLECULE
2d3u_ligand_025
    40    42
SMALL
GAST_HUCK
****
This file was generated by PARSER (from files_GN.cpp)

@<TRIPOS>ATOM
      1 C1          5.8017   28.0412   76.0424 C.ar        1 CCT      -0.0292
      2 C2          4.8273   28.4531   75.1120 C.ar        1 CCT       0.0919
      3 C3          4.5349   29.8273   74.9853 C.ar        1 CCT      -0.0292
      4 C4          5.2085   30.7729   75.7795 C.ar        1 CCT      -0.0447
      5 C5          6.1970   30.3824   76.7159 C.ar        1 CCT      -0.0014
      6 C6          6.4734   28.9933   76.8327 C.ar        1 CCT      -0.0447
      7 C7          8.3698   32.6146   79.2581 C.2         1 CCT       0.0659
      8 C8          7.7408   33.4347   78.3062 C.2         1 CCT       0.0654
      9 C9          6.9233   32.7419   77.3881 C.2         1 CCT      -0.0309
     10 C10         6.8908   31.3415   77.5195 C.2         1 CCT       0.0389
     11 S11         7.8929   31.0094   78.8830 S.3         1 CCT      -0.0497
     12 C12         4.2041   27.5690   74.3840 C.1         1 CCT       0.0956
     13 N13         3.6583   26.7893   73.7427 N.1         1 CCT      -0.3326
     14 C14         9.2472   32.9229   80.3141 C.2         1 CCT       0.0483
     15 O15         9.4449   32.0464   81.3276 O.co2       1 CCT      -0.5727
     16 O16         9.9648   34.0723   80.3366 O.co2       1 CCT      -0.5727
     17 N17         7.8512   34.7839   78.2557 N.am        1 CCT      -0.1970
     18 S18         9.1783   35.4994   77.5022 S.o2        1 CCT       0.0842
     19 C19         9.8595   36.8648   75.1462 C.ar        1 CCT      -0.0191
     20 C20         8.8437   36.3277   75.9914 C.ar        1 CCT       0.1144
     21 C21         7.4894   36.4633   75.6050 C.ar        1 CCT      -0.0414
     22 C22         7.1376   37.0733   74.3917 C.ar        1 CCT      -0.0669
     23 C23         8.1340   37.5698   73.5431 C.ar        1 CCT      -0.0685
     24 C24         9.4825   37.4738   73.9229 C.ar        1 CCT      -0.0587
     25 C25        11.3152   36.8290   75.4424 C.3         1 CCT      -0.0292
     26 O26        10.2925   34.3866   77.2626 O.2         1 CCT      -0.1463
     27 O27         9.7932   36.5280   78.5422 O.2         1 CCT      -0.1463
     28 H1          6.0343   27.0514   76.1567 H           1 CCT       0.0708
     29 H2          3.8286   30.1519   74.3178 H           1 CCT       0.0708
     30 H3          4.9523   31.7520   75.6700 H           1 CCT       0.0633
     31 H4          7.1752   28.6504   77.4957 H           1 CCT       0.0633
     32 H5          6.4275   33.2379   76.6450 H           1 CCT       0.0467
     33 H6          7.0256   35.3028   78.2300 H           1 CCT       0.2106
     34 H7          6.7351   36.1141   76.2045 H           1 CCT       0.0619
     35 H8          6.1518   37.1540   74.1250 H           1 CCT       0.0560
     36 H9          7.8814   38.0062   72.6518 H           1 CCT       0.0599
     37 H10        10.1943   37.8627   73.2943 H           1 CCT       0.0557
     38 H11        11.5507   36.4657   76.4380 H           1 CCT       0.0391
     39 H12        11.7381   37.8331   75.3598 H           1 CCT       0.0391
     40 H13        11.8088   36.1746   74.7228 H           1 CCT       0.0391
@<TRIPOS>BOND
     1     1     2  ar
     2     6     1  ar
     3     3     2  ar
     4     2    12   1
     5     4     3  ar
     6     5     4  ar
     7     5     6  ar
     8    10     5   1
     9     8     7   2
    10     7    11   1
    11     7    14   1
    12     9     8   1
    13     8    17   1
    14     9    10   2
    15    10    11   1
    16    12    13   3
    17    14    15  ar
    18    14    16  ar
    19    17    18  am
    20    18    20   1
    21    18    26   2
    22    18    27   2
    23    20    19  ar
    24    19    24  ar
    25    19    25   1
    26    20    21  ar
    27    21    22  ar
    28    22    23  ar
    29    23    24  ar
    30     1    28   1
    31     3    29   1
    32     4    30   1
    33     6    31   1
    34     9    32   1
    35    17    33   1
    36    21    34   1
    37    22    35   1
    38    23    36   1
    39    24    37   1
    40    25    38   1
    41    25    39   1
    42    25    40   1
@<TRIPOS>SUBSTRUCTURE
     1  CCT      1

