@<TRIPOS>MOLECULE
2d3u_ligand_005
    40    42
SMALL
GAST_HUCK
****
This file was generated by PARSER (from files_GN.cpp)

@<TRIPOS>ATOM
      1 C1          7.7057   34.4546   84.3883 C.ar        1 CCT      -0.0292
      2 C2          8.7362   35.3967   84.5713 C.ar        1 CCT       0.0919
      3 C3          9.1305   36.2028   83.4832 C.ar        1 CCT      -0.0292
      4 C4          8.5143   36.0473   82.2245 C.ar        1 CCT      -0.0447
      5 C5          7.4853   35.0954   82.0143 C.ar        1 CCT      -0.0014
      6 C6          7.0907   34.3118   83.1314 C.ar        1 CCT      -0.0447
      7 C7          5.4073   34.1910   78.7002 C.2         1 CCT       0.0659
      8 C8          6.3815   35.1508   78.3972 C.2         1 CCT       0.0654
      9 C9          7.1775   35.5321   79.4989 C.2         1 CCT      -0.0309
     10 C10         6.8700   34.9209   80.7304 C.2         1 CCT       0.0389
     11 S11         5.5591   33.8606   80.3789 S.3         1 CCT      -0.0497
     12 C12         9.3348   35.5031   85.7237 C.1         1 CCT       0.0956
     13 N13         9.8656   35.5870   86.7411 N.1         1 CCT      -0.3326
     14 C14         4.5078   33.5425   77.8320 C.2         1 CCT       0.0483
     15 O15         4.7532   33.4792   76.4991 O.co2       1 CCT      -0.5727
     16 O16         3.4980   32.7793   78.3187 O.co2       1 CCT      -0.5727
     17 N17         6.4728   35.7005   77.1694 N.am        1 CCT      -0.1970
     18 S18         7.7582   35.2985   76.1496 S.o2        1 CCT       0.0842
     19 C19        10.2822   36.4964   75.8040 C.ar        1 CCT      -0.0191
     20 C20         8.8655   36.5694   75.6776 C.ar        1 CCT       0.1144
     21 C21         8.2809   37.7040   75.0686 C.ar        1 CCT      -0.0414
     22 C22         9.0764   38.7342   74.5472 C.ar        1 CCT      -0.0669
     23 C23        10.4699   38.6461   74.6171 C.ar        1 CCT      -0.0685
     24 C24        11.0649   37.5369   75.2406 C.ar        1 CCT      -0.0587
     25 C25        11.0359   35.4182   76.4872 C.3         1 CCT      -0.0292
     26 O26         6.9461   35.0397   74.8025 O.2         1 CCT      -0.1463
     27 O27         8.2459   33.7963   76.3538 O.2         1 CCT      -0.1463
     28 H1          7.3989   33.8562   85.1636 H           1 CCT       0.0708
     29 H2          9.8740   36.9014   83.5893 H           1 CCT       0.0708
     30 H3          8.8402   36.6405   81.4668 H           1 CCT       0.0633
     31 H4          6.3542   33.6098   83.0480 H           1 CCT       0.0633
     32 H5          7.9109   36.2369   79.3922 H           1 CCT       0.0467
     33 H6          5.6329   35.8948   76.7214 H           1 CCT       0.2106
     34 H7          7.2615   37.7830   74.9792 H           1 CCT       0.0619
     35 H8          8.6356   39.5438   74.1000 H           1 CCT       0.0560
     36 H9         11.0483   39.3963   74.2342 H           1 CCT       0.0599
     37 H10        12.0901   37.5092   75.2940 H           1 CCT       0.0557
     38 H11        10.4080   34.7602   77.0798 H           1 CCT       0.0391
     39 H12        11.7611   35.8496   77.1796 H           1 CCT       0.0391
     40 H13        11.5637   34.8130   75.7494 H           1 CCT       0.0391
@<TRIPOS>BOND
     1     1     2  ar
     2     6     1  ar
     3     3     2  ar
     4     2    12   1
     5     4     3  ar
     6     5     4  ar
     7     5     6  ar
     8    10     5   1
     9     8     7   2
    10     7    11   1
    11     7    14   1
    12     9     8   1
    13     8    17   1
    14     9    10   2
    15    10    11   1
    16    12    13   3
    17    14    15  ar
    18    14    16  ar
    19    17    18  am
    20    18    20   1
    21    18    26   2
    22    18    27   2
    23    20    19  ar
    24    19    24  ar
    25    19    25   1
    26    20    21  ar
    27    21    22  ar
    28    22    23  ar
    29    23    24  ar
    30     1    28   1
    31     3    29   1
    32     4    30   1
    33     6    31   1
    34     9    32   1
    35    17    33   1
    36    21    34   1
    37    22    35   1
    38    23    36   1
    39    24    37   1
    40    25    38   1
    41    25    39   1
    42    25    40   1
@<TRIPOS>SUBSTRUCTURE
     1  CCT      1

