@<TRIPOS>MOLECULE
2d3u_ligand_026
    40    42
SMALL
GAST_HUCK
****
This file was generated by PARSER (from files_GN.cpp)

@<TRIPOS>ATOM
      1 C1          9.0518   34.0508   83.4555 C.ar        1 CCT      -0.0292
      2 C2          9.3496   35.4285   83.4616 C.ar        1 CCT       0.0919
      3 C3          9.5725   36.0967   82.2401 C.ar        1 CCT      -0.0292
      4 C4          9.4838   35.3883   81.0218 C.ar        1 CCT      -0.0447
      5 C5          9.1722   34.0036   81.0000 C.ar        1 CCT      -0.0014
      6 C6          8.9763   33.3471   82.2375 C.ar        1 CCT      -0.0447
      7 C7          9.1223   31.5872   77.8416 C.2         1 CCT       0.0659
      8 C8          8.7064   32.8730   77.4541 C.2         1 CCT       0.0654
      9 C9          8.7238   33.8154   78.5119 C.2         1 CCT      -0.0309
     10 C10         9.0845   33.3002   79.7720 C.2         1 CCT       0.0389
     11 S11         9.4288   31.6326   79.5364 S.3         1 CCT      -0.0497
     12 C12         9.4129   36.0714   84.5905 C.1         1 CCT       0.0956
     13 N13         9.4691   36.6295   85.5899 N.1         1 CCT      -0.3326
     14 C14         9.2126   30.4171   77.0501 C.2         1 CCT       0.0483
     15 O15         8.1672   30.0614   76.2417 O.co2       1 CCT      -0.5727
     16 O16        10.1343   29.4600   77.3533 O.co2       1 CCT      -0.5727
     17 N17         8.4366   33.1360   76.1443 N.am        1 CCT      -0.1970
     18 S18         7.8533   34.5945   75.5338 S.o2        1 CCT       0.0842
     19 C19         8.7856   37.1560   74.8716 C.ar        1 CCT      -0.0191
     20 C20         9.0744   35.8391   75.3365 C.ar        1 CCT       0.1144
     21 C21        10.4018   35.4874   75.6736 C.ar        1 CCT      -0.0414
     22 C22        11.4428   36.4197   75.5622 C.ar        1 CCT      -0.0669
     23 C23        11.1677   37.7230   75.1173 C.ar        1 CCT      -0.0685
     24 C24         9.8494   38.0873   74.7829 C.ar        1 CCT      -0.0587
     25 C25         7.4468   37.6401   74.4525 C.3         1 CCT      -0.0292
     26 O26         6.5895   35.0596   76.3825 O.2         1 CCT      -0.1463
     27 O27         7.2651   34.2112   74.1050 O.2         1 CCT      -0.1463
     28 H1          8.8685   33.5419   84.3284 H           1 CCT       0.0708
     29 H2          9.7909   37.1000   82.2142 H           1 CCT       0.0708
     30 H3          9.6574   35.8974   80.1483 H           1 CCT       0.0633
     31 H4          8.7399   32.3520   82.2676 H           1 CCT       0.0633
     32 H5          8.4587   34.7853   78.3948 H           1 CCT       0.0467
     33 H6          8.6685   32.4618   75.4936 H           1 CCT       0.2106
     34 H7         10.6355   34.5505   76.0043 H           1 CCT       0.0619
     35 H8         12.4037   36.1568   75.7920 H           1 CCT       0.0560
     36 H9         11.9196   38.4075   75.0302 H           1 CCT       0.0599
     37 H10         9.6762   39.0357   74.4545 H           1 CCT       0.0557
     38 H11         6.6784   36.8685   74.4460 H           1 CCT       0.0391
     39 H12         7.5098   38.0429   73.4389 H           1 CCT       0.0391
     40 H13         7.1218   38.4333   75.1286 H           1 CCT       0.0391
@<TRIPOS>BOND
     1     1     2  ar
     2     6     1  ar
     3     3     2  ar
     4     2    12   1
     5     4     3  ar
     6     5     4  ar
     7     5     6  ar
     8    10     5   1
     9     8     7   2
    10     7    11   1
    11     7    14   1
    12     9     8   1
    13     8    17   1
    14     9    10   2
    15    10    11   1
    16    12    13   3
    17    14    15  ar
    18    14    16  ar
    19    17    18  am
    20    18    20   1
    21    18    26   2
    22    18    27   2
    23    20    19  ar
    24    19    24  ar
    25    19    25   1
    26    20    21  ar
    27    21    22  ar
    28    22    23  ar
    29    23    24  ar
    30     1    28   1
    31     3    29   1
    32     4    30   1
    33     6    31   1
    34     9    32   1
    35    17    33   1
    36    21    34   1
    37    22    35   1
    38    23    36   1
    39    24    37   1
    40    25    38   1
    41    25    39   1
    42    25    40   1
@<TRIPOS>SUBSTRUCTURE
     1  CCT      1

