@<TRIPOS>MOLECULE
2d3u_ligand_029
    40    42
SMALL
GAST_HUCK
****
This file was generated by PARSER (from files_GN.cpp)

@<TRIPOS>ATOM
      1 C1          6.0996   29.0094   76.6887 C.ar        1 CCT      -0.0292
      2 C2          6.6712   28.9095   75.4055 C.ar        1 CCT       0.0919
      3 C3          6.8913   30.0832   74.6553 C.ar        1 CCT      -0.0292
      4 C4          6.5587   31.3409   75.1931 C.ar        1 CCT      -0.0447
      5 C5          6.0024   31.4627   76.4911 C.ar        1 CCT      -0.0014
      6 C6          5.7720   30.2690   77.2214 C.ar        1 CCT      -0.0447
      7 C7          5.2544   34.7951   78.5792 C.2         1 CCT       0.0659
      8 C8          5.3019   35.0899   77.2035 C.2         1 CCT       0.0654
      9 C9          5.5265   33.9620   76.3886 C.2         1 CCT      -0.0309
     10 C10         5.7154   32.7404   77.0524 C.2         1 CCT       0.0389
     11 S11         5.5615   33.1063   78.7317 S.3         1 CCT      -0.0497
     12 C12         6.9952   27.7465   74.9180 C.1         1 CCT       0.0956
     13 N13         7.2845   26.7215   74.4858 N.1         1 CCT      -0.3326
     14 C14         4.9715   35.6465   79.6544 C.2         1 CCT       0.0483
     15 O15         5.9451   36.0031   80.5267 O.co2       1 CCT      -0.5727
     16 O16         3.7318   36.1500   79.8365 O.co2       1 CCT      -0.5727
     17 N17         5.2158   36.3216   76.6441 N.am        1 CCT      -0.1970
     18 S18         6.3121   37.5457   77.0286 S.o2        1 CCT       0.0842
     19 C19         8.9378   36.5439   77.0933 C.ar        1 CCT      -0.0191
     20 C20         7.9471   37.3381   76.4350 C.ar        1 CCT       0.1144
     21 C21         8.2900   38.0027   75.2295 C.ar        1 CCT      -0.0414
     22 C22         9.5843   37.9180   74.6934 C.ar        1 CCT      -0.0669
     23 C23        10.5605   37.1429   75.3383 C.ar        1 CCT      -0.0685
     24 C24        10.2308   36.4551   76.5203 C.ar        1 CCT      -0.0587
     25 C25         8.7362   35.7833   78.3521 C.3         1 CCT      -0.0292
     26 O26         6.2086   38.0069   78.5457 O.2         1 CCT      -0.1463
     27 O27         5.6672   38.8167   76.3211 O.2         1 CCT      -0.1463
     28 H1          5.9144   28.1695   77.2510 H           1 CCT       0.0708
     29 H2          7.3004   30.0360   73.7146 H           1 CCT       0.0708
     30 H3          6.7574   32.1672   74.6284 H           1 CCT       0.0633
     31 H4          5.3535   30.3030   78.1543 H           1 CCT       0.0633
     32 H5          5.5750   34.0441   75.3709 H           1 CCT       0.0467
     33 H6          4.8344   36.3851   75.7555 H           1 CCT       0.2106
     34 H7          7.6023   38.5655   74.7231 H           1 CCT       0.0619
     35 H8          9.8216   38.4201   73.8314 H           1 CCT       0.0560
     36 H9         11.5045   37.0788   74.9475 H           1 CCT       0.0599
     37 H10        10.9621   35.8969   76.9716 H           1 CCT       0.0557
     38 H11         7.7505   35.9084   78.7850 H           1 CCT       0.0391
     39 H12         9.4700   36.1135   79.0965 H           1 CCT       0.0391
     40 H13         8.8854   34.7171   78.1536 H           1 CCT       0.0391
@<TRIPOS>BOND
     1     1     2  ar
     2     6     1  ar
     3     3     2  ar
     4     2    12   1
     5     4     3  ar
     6     5     4  ar
     7     5     6  ar
     8    10     5   1
     9     8     7   2
    10     7    11   1
    11     7    14   1
    12     9     8   1
    13     8    17   1
    14     9    10   2
    15    10    11   1
    16    12    13   3
    17    14    15  ar
    18    14    16  ar
    19    17    18  am
    20    18    20   1
    21    18    26   2
    22    18    27   2
    23    20    19  ar
    24    19    24  ar
    25    19    25   1
    26    20    21  ar
    27    21    22  ar
    28    22    23  ar
    29    23    24  ar
    30     1    28   1
    31     3    29   1
    32     4    30   1
    33     6    31   1
    34     9    32   1
    35    17    33   1
    36    21    34   1
    37    22    35   1
    38    23    36   1
    39    24    37   1
    40    25    38   1
    41    25    39   1
    42    25    40   1
@<TRIPOS>SUBSTRUCTURE
     1  CCT      1

