@<TRIPOS>MOLECULE
2d3u_ligand_034
    40    42
SMALL
GAST_HUCK
****
This file was generated by PARSER (from files_GN.cpp)

@<TRIPOS>ATOM
      1 C1         -6.1738   36.4322   82.4301 C.ar        1 CCT      -0.0292
      2 C2         -6.5924   35.8407   81.2193 C.ar        1 CCT       0.0919
      3 C3         -5.6856   35.7559   80.1401 C.ar        1 CCT      -0.0292
      4 C4         -4.3764   36.2654   80.2684 C.ar        1 CCT      -0.0447
      5 C5         -3.9381   36.8618   81.4815 C.ar        1 CCT      -0.0014
      6 C6         -4.8643   36.9299   82.5537 C.ar        1 CCT      -0.0447
      7 C7         -0.2838   38.0907   82.5355 C.2         1 CCT       0.0659
      8 C8         -0.4363   38.2009   81.1459 C.2         1 CCT       0.0654
      9 C9         -1.7083   37.8062   80.6646 C.2         1 CCT      -0.0309
     10 C10        -2.6091   37.3547   81.6454 C.2         1 CCT       0.0389
     11 S11        -1.7609   37.4765   83.1364 S.3         1 CCT      -0.0497
     12 C12        -7.8025   35.3708   81.1054 C.1         1 CCT       0.0956
     13 N13        -8.8679   34.9541   81.0073 N.1         1 CCT      -0.3326
     14 C14         0.8218   38.4342   83.3248 C.2         1 CCT       0.0483
     15 O15         1.1974   37.6575   84.3841 O.co2       1 CCT      -0.5727
     16 O16         1.4412   39.6357   83.1591 O.co2       1 CCT      -0.5727
     17 N17         0.5927   38.5602   80.3345 N.am        1 CCT      -0.1970
     18 S18         0.5447   39.9814   79.4261 S.o2        1 CCT       0.0842
     19 C19         3.0939   39.5188   78.3344 C.ar        1 CCT      -0.0191
     20 C20         2.1716   40.4283   78.9377 C.ar        1 CCT       0.1144
     21 C21         2.5937   41.7597   79.1773 C.ar        1 CCT      -0.0414
     22 C22         3.8876   42.1873   78.8347 C.ar        1 CCT      -0.0669
     23 C23         4.7872   41.2895   78.2476 C.ar        1 CCT      -0.0685
     24 C24         4.3944   39.9696   78.0051 C.ar        1 CCT      -0.0587
     25 C25         2.8099   38.0987   78.0172 C.3         1 CCT      -0.0292
     26 O26        -0.1389   41.1127   80.3112 O.2         1 CCT      -0.1463
     27 O27        -0.3716   39.6976   78.1589 O.2         1 CCT      -0.1463
     28 H1         -6.8053   36.5050   83.2296 H           1 CCT       0.0708
     29 H2         -5.9662   35.3185   79.2608 H           1 CCT       0.0708
     30 H3         -3.7405   36.1675   79.4739 H           1 CCT       0.0633
     31 H4         -4.5962   37.3559   83.4423 H           1 CCT       0.0633
     32 H5         -1.9369   37.8288   79.6584 H           1 CCT       0.0467
     33 H6          1.4783   38.2395   80.5910 H           1 CCT       0.2106
     34 H7          1.9609   42.4414   79.6053 H           1 CCT       0.0619
     35 H8          4.1691   43.1570   79.0001 H           1 CCT       0.0560
     36 H9          5.7308   41.6018   77.9923 H           1 CCT       0.0599
     37 H10         5.0699   39.3333   77.5641 H           1 CCT       0.0557
     38 H11         1.7878   37.7969   78.2337 H           1 CCT       0.0391
     39 H12         3.4740   37.4491   78.5863 H           1 CCT       0.0391
     40 H13         2.9669   37.9223   76.9502 H           1 CCT       0.0391
@<TRIPOS>BOND
     1     1     2  ar
     2     6     1  ar
     3     3     2  ar
     4     2    12   1
     5     4     3  ar
     6     5     4  ar
     7     5     6  ar
     8    10     5   1
     9     8     7   2
    10     7    11   1
    11     7    14   1
    12     9     8   1
    13     8    17   1
    14     9    10   2
    15    10    11   1
    16    12    13   3
    17    14    15  ar
    18    14    16  ar
    19    17    18  am
    20    18    20   1
    21    18    26   2
    22    18    27   2
    23    20    19  ar
    24    19    24  ar
    25    19    25   1
    26    20    21  ar
    27    21    22  ar
    28    22    23  ar
    29    23    24  ar
    30     1    28   1
    31     3    29   1
    32     4    30   1
    33     6    31   1
    34     9    32   1
    35    17    33   1
    36    21    34   1
    37    22    35   1
    38    23    36   1
    39    24    37   1
    40    25    38   1
    41    25    39   1
    42    25    40   1
@<TRIPOS>SUBSTRUCTURE
     1  CCT      1

