@<TRIPOS>MOLECULE
2d3u_ligand_003
    40    42
SMALL
GAST_HUCK
****
This file was generated by PARSER (from files_GN.cpp)

@<TRIPOS>ATOM
      1 C1          2.2071   40.3262   79.1589 C.ar        1 CCT      -0.0292
      2 C2          1.8345   40.1755   80.5082 C.ar        1 CCT       0.0919
      3 C3          2.1772   38.9894   81.1890 C.ar        1 CCT      -0.0292
      4 C4          2.8940   37.9738   80.5279 C.ar        1 CCT      -0.0447
      5 C5          3.2900   38.1110   79.1737 C.ar        1 CCT      -0.0014
      6 C6          2.9190   39.3057   78.5033 C.ar        1 CCT      -0.0447
      7 C7          5.1598   34.9043   77.6893 C.2         1 CCT       0.0659
      8 C8          5.3637   36.0001   76.8443 C.2         1 CCT       0.0654
      9 C9          4.7187   37.1674   77.2977 C.2         1 CCT      -0.0309
     10 C10         4.0263   37.0793   78.5164 C.2         1 CCT       0.0389
     11 S11         4.2287   35.4457   79.0297 S.3         1 CCT      -0.0497
     12 C12         1.1978   41.1284   81.1214 C.1         1 CCT       0.0956
     13 N13         0.6422   41.9773   81.6641 N.1         1 CCT      -0.3326
     14 C14         5.5961   33.5927   77.4836 C.2         1 CCT       0.0483
     15 O15         6.5094   33.0564   78.3240 O.co2       1 CCT      -0.5727
     16 O16         4.8129   32.7618   76.7569 O.co2       1 CCT      -0.5727
     17 N17         6.0932   35.8963   75.7010 N.am        1 CCT      -0.1970
     18 S18         7.2082   37.0379   75.1482 S.o2        1 CCT       0.0842
     19 C19         9.9631   37.5264   75.0508 C.ar        1 CCT      -0.0191
     20 C20         8.8862   36.7289   75.5379 C.ar        1 CCT       0.1144
     21 C21         9.1712   35.6154   76.3659 C.ar        1 CCT      -0.0414
     22 C22        10.4945   35.2774   76.6959 C.ar        1 CCT      -0.0669
     23 C23        11.5554   36.0531   76.2068 C.ar        1 CCT      -0.0685
     24 C24        11.2877   37.1674   75.3978 C.ar        1 CCT      -0.0587
     25 C25         9.8191   38.7169   74.1718 C.3         1 CCT      -0.0292
     26 O26         6.8773   38.5203   75.6212 O.2         1 CCT      -0.1463
     27 O27         7.0450   37.1063   73.5672 O.2         1 CCT      -0.1463
     28 H1          1.9686   41.1774   78.6407 H           1 CCT       0.0708
     29 H2          1.9191   38.8543   82.1719 H           1 CCT       0.0708
     30 H3          3.1366   37.1344   81.0624 H           1 CCT       0.0633
     31 H4          3.1477   39.4527   77.5190 H           1 CCT       0.0633
     32 H5          4.7392   38.0292   76.7615 H           1 CCT       0.0467
     33 H6          6.1940   35.0043   75.3316 H           1 CCT       0.2106
     34 H7          8.4174   35.0281   76.7349 H           1 CCT       0.0619
     35 H8         10.6848   34.4677   77.2893 H           1 CCT       0.0560
     36 H9         12.5195   35.8121   76.4409 H           1 CCT       0.0599
     37 H10        12.0774   37.7294   75.0700 H           1 CCT       0.0557
     38 H11         8.7927   39.0367   74.0132 H           1 CCT       0.0391
     39 H12        10.2521   38.4951   73.1943 H           1 CCT       0.0391
     40 H13        10.3524   39.5669   74.6018 H           1 CCT       0.0391
@<TRIPOS>BOND
     1     1     2  ar
     2     6     1  ar
     3     3     2  ar
     4     2    12   1
     5     4     3  ar
     6     5     4  ar
     7     5     6  ar
     8    10     5   1
     9     8     7   2
    10     7    11   1
    11     7    14   1
    12     9     8   1
    13     8    17   1
    14     9    10   2
    15    10    11   1
    16    12    13   3
    17    14    15  ar
    18    14    16  ar
    19    17    18  am
    20    18    20   1
    21    18    26   2
    22    18    27   2
    23    20    19  ar
    24    19    24  ar
    25    19    25   1
    26    20    21  ar
    27    21    22  ar
    28    22    23  ar
    29    23    24  ar
    30     1    28   1
    31     3    29   1
    32     4    30   1
    33     6    31   1
    34     9    32   1
    35    17    33   1
    36    21    34   1
    37    22    35   1
    38    23    36   1
    39    24    37   1
    40    25    38   1
    41    25    39   1
    42    25    40   1
@<TRIPOS>SUBSTRUCTURE
     1  CCT      1

