@<TRIPOS>MOLECULE
2d3u_ligand_032
    40    42
SMALL
GAST_HUCK
****
This file was generated by PARSER (from files_GN.cpp)

@<TRIPOS>ATOM
      1 C1          6.2943   33.6661   82.8349 C.ar        1 CCT      -0.0292
      2 C2          7.5638   33.1316   82.5325 C.ar        1 CCT       0.0919
      3 C3          8.2130   33.5270   81.3464 C.ar        1 CCT      -0.0292
      4 C4          7.5984   34.4511   80.4789 C.ar        1 CCT      -0.0447
      5 C5          6.3214   35.0032   80.7639 C.ar        1 CCT      -0.0014
      6 C6          5.6857   34.5900   81.9596 C.ar        1 CCT      -0.0447
      7 C7          5.1386   37.6101   77.9557 C.2         1 CCT       0.0659
      8 C8          4.0550   37.2831   78.7889 C.2         1 CCT       0.0654
      9 C9          4.3724   36.3883   79.8330 C.2         1 CCT      -0.0309
     10 C10         5.7028   35.9360   79.8722 C.2         1 CCT       0.0389
     11 S11         6.4872   36.7318   78.5585 S.3         1 CCT      -0.0497
     12 C12         8.1325   32.2813   83.3390 C.1         1 CCT       0.0956
     13 N13         8.6356   31.5308   84.0487 N.1         1 CCT      -0.3326
     14 C14         5.1990   38.4880   76.8591 C.2         1 CCT       0.0483
     15 O15         6.2288   38.4356   75.9863 O.co2       1 CCT      -0.5727
     16 O16         4.2682   39.4477   76.6694 O.co2       1 CCT      -0.5727
     17 N17         2.7950   37.7146   78.5355 N.am        1 CCT      -0.1970
     18 S18         2.0650   38.9133   79.4729 S.o2        1 CCT       0.0842
     19 C19        -0.3814   39.5683   80.6677 C.ar        1 CCT      -0.0191
     20 C20         0.4572   38.5859   80.0635 C.ar        1 CCT       0.1144
     21 C21        -0.0269   37.2677   79.9122 C.ar        1 CCT      -0.0414
     22 C22        -1.3163   36.9130   80.3380 C.ar        1 CCT      -0.0669
     23 C23        -2.1464   37.8791   80.9215 C.ar        1 CCT      -0.0685
     24 C24        -1.6852   39.1950   81.0771 C.ar        1 CCT      -0.0587
     25 C25         0.0025   40.9876   80.9220 C.3         1 CCT      -0.0292
     26 O26         2.0448   40.2132   78.5561 O.2         1 CCT      -0.1463
     27 O27         2.9997   39.2935   80.7018 O.2         1 CCT      -0.1463
     28 H1          5.8016   33.3945   83.6908 H           1 CCT       0.0708
     29 H2          9.1338   33.1526   81.0998 H           1 CCT       0.0708
     30 H3          8.1018   34.7018   79.6263 H           1 CCT       0.0633
     31 H4          4.7719   34.9654   82.2248 H           1 CCT       0.0633
     32 H5          3.6534   36.0564   80.4770 H           1 CCT       0.0467
     33 H6          2.5264   37.7075   77.5971 H           1 CCT       0.2106
     34 H7          0.5562   36.5372   79.4898 H           1 CCT       0.0619
     35 H8         -1.6511   35.9509   80.2222 H           1 CCT       0.0560
     36 H9         -3.0868   37.6228   81.2349 H           1 CCT       0.0599
     37 H10        -2.3135   39.8817   81.5071 H           1 CCT       0.0557
     38 H11         1.0299   41.2207   80.6545 H           1 CCT       0.0391
     39 H12        -0.1135   41.2164   81.9844 H           1 CCT       0.0391
     40 H13        -0.6498   41.6513   80.3506 H           1 CCT       0.0391
@<TRIPOS>BOND
     1     1     2  ar
     2     6     1  ar
     3     3     2  ar
     4     2    12   1
     5     4     3  ar
     6     5     4  ar
     7     5     6  ar
     8    10     5   1
     9     8     7   2
    10     7    11   1
    11     7    14   1
    12     9     8   1
    13     8    17   1
    14     9    10   2
    15    10    11   1
    16    12    13   3
    17    14    15  ar
    18    14    16  ar
    19    17    18  am
    20    18    20   1
    21    18    26   2
    22    18    27   2
    23    20    19  ar
    24    19    24  ar
    25    19    25   1
    26    20    21  ar
    27    21    22  ar
    28    22    23  ar
    29    23    24  ar
    30     1    28   1
    31     3    29   1
    32     4    30   1
    33     6    31   1
    34     9    32   1
    35    17    33   1
    36    21    34   1
    37    22    35   1
    38    23    36   1
    39    24    37   1
    40    25    38   1
    41    25    39   1
    42    25    40   1
@<TRIPOS>SUBSTRUCTURE
     1  CCT      1

