@<TRIPOS>MOLECULE
2d3u_ligand_008
    40    42
SMALL
GAST_HUCK
****
This file was generated by PARSER (from files_GN.cpp)

@<TRIPOS>ATOM
      1 C1          3.3356   36.0463   81.0408 C.ar        1 CCT      -0.0292
      2 C2          2.0645   35.4983   81.3218 C.ar        1 CCT       0.0919
      3 C3          1.5964   34.4016   80.5601 C.ar        1 CCT      -0.0292
      4 C4          2.3954   33.8736   79.5350 C.ar        1 CCT      -0.0447
      5 C5          3.6748   34.4021   79.2386 C.ar        1 CCT      -0.0014
      6 C6          4.1228   35.5036   80.0057 C.ar        1 CCT      -0.0447
      7 C7          5.4591   32.4662   76.2418 C.2         1 CCT       0.0659
      8 C8          6.0304   33.7353   76.3906 C.2         1 CCT       0.0654
      9 C9          5.4716   34.4772   77.4422 C.2         1 CCT      -0.0309
     10 C10         4.4602   33.8465   78.1822 C.2         1 CCT       0.0389
     11 S11         4.2747   32.2960   77.4713 S.3         1 CCT      -0.0497
     12 C12         1.3185   36.0148   82.2565 C.1         1 CCT       0.0956
     13 N13         0.6559   36.4727   83.0770 N.1         1 CCT      -0.3326
     14 C14         5.7433   31.4966   75.2937 C.2         1 CCT       0.0483
     15 O15         5.3220   31.6813   74.0088 O.co2       1 CCT      -0.5727
     16 O16         6.0770   30.2288   75.6873 O.co2       1 CCT      -0.5727
     17 N17         7.0264   34.1865   75.5920 N.am        1 CCT      -0.1970
     18 S18         8.4633   34.8304   76.2046 S.o2        1 CCT       0.0842
     19 C19         8.3513   37.3960   75.0552 C.ar        1 CCT      -0.0191
     20 C20         9.1322   36.3403   75.6128 C.ar        1 CCT       0.1144
     21 C21        10.5375   36.4782   75.7065 C.ar        1 CCT      -0.0414
     22 C22        11.1743   37.6253   75.2110 C.ar        1 CCT      -0.0669
     23 C23        10.4246   38.6491   74.6145 C.ar        1 CCT      -0.0685
     24 C24         9.0282   38.5339   74.5521 C.ar        1 CCT      -0.0587
     25 C25         6.8651   37.4100   74.9796 C.3         1 CCT      -0.0292
     26 O26         9.5377   33.6699   75.9983 O.2         1 CCT      -0.1463
     27 O27         8.4038   34.9275   77.7970 O.2         1 CCT      -0.1463
     28 H1          3.6940   36.8384   81.5768 H           1 CCT       0.0708
     29 H2          0.6826   33.9925   80.7418 H           1 CCT       0.0708
     30 H3          2.0101   33.0980   78.9866 H           1 CCT       0.0633
     31 H4          5.0414   35.9276   79.8330 H           1 CCT       0.0633
     32 H5          5.7488   35.4509   77.6231 H           1 CCT       0.0467
     33 H6          7.0826   33.7830   74.6970 H           1 CCT       0.2106
     34 H7         11.1193   35.7499   76.1323 H           1 CCT       0.0619
     35 H8         12.1940   37.7219   75.3038 H           1 CCT       0.0560
     36 H9         10.8919   39.4884   74.2647 H           1 CCT       0.0599
     37 H10         8.5017   39.3070   74.1448 H           1 CCT       0.0557
     38 H11         6.4130   36.5450   75.4581 H           1 CCT       0.0391
     39 H12         6.5656   37.4324   73.9213 H           1 CCT       0.0391
     40 H13         6.4915   38.3153   75.4807 H           1 CCT       0.0391
@<TRIPOS>BOND
     1     1     2  ar
     2     6     1  ar
     3     3     2  ar
     4     2    12   1
     5     4     3  ar
     6     5     4  ar
     7     5     6  ar
     8    10     5   1
     9     8     7   2
    10     7    11   1
    11     7    14   1
    12     9     8   1
    13     8    17   1
    14     9    10   2
    15    10    11   1
    16    12    13   3
    17    14    15  ar
    18    14    16  ar
    19    17    18  am
    20    18    20   1
    21    18    26   2
    22    18    27   2
    23    20    19  ar
    24    19    24  ar
    25    19    25   1
    26    20    21  ar
    27    21    22  ar
    28    22    23  ar
    29    23    24  ar
    30     1    28   1
    31     3    29   1
    32     4    30   1
    33     6    31   1
    34     9    32   1
    35    17    33   1
    36    21    34   1
    37    22    35   1
    38    23    36   1
    39    24    37   1
    40    25    38   1
    41    25    39   1
    42    25    40   1
@<TRIPOS>SUBSTRUCTURE
     1  CCT      1

