@<TRIPOS>MOLECULE
2d3u_ligand_027
    40    42
SMALL
GAST_HUCK
****
This file was generated by PARSER (from files_GN.cpp)

@<TRIPOS>ATOM
      1 C1          0.6488   33.9881   81.6148 C.ar        1 CCT      -0.0292
      2 C2         -0.0670   33.2187   80.6771 C.ar        1 CCT       0.0919
      3 C3          0.5796   32.7922   79.5004 C.ar        1 CCT      -0.0292
      4 C4          1.9191   33.1530   79.2558 C.ar        1 CCT      -0.0447
      5 C5          2.6518   33.9434   80.1786 C.ar        1 CCT      -0.0014
      6 C6          1.9872   34.3428   81.3663 C.ar        1 CCT      -0.0447
      7 C7          6.4986   35.1004   80.0658 C.2         1 CCT       0.0659
      8 C8          6.1085   34.5935   78.8161 C.2         1 CCT       0.0654
      9 C9          4.7721   34.1503   78.7615 C.2         1 CCT      -0.0309
     10 C10         4.0137   34.3051   79.9375 C.2         1 CCT       0.0389
     11 S11         5.1056   35.0133   81.0692 S.3         1 CCT      -0.0497
     12 C12        -1.3174   32.9086   80.8898 C.1         1 CCT       0.0956
     13 N13        -2.4187   32.6386   81.0743 N.1         1 CCT      -0.3326
     14 C14         7.7618   35.5323   80.5014 C.2         1 CCT       0.0483
     15 O15         7.8902   36.2931   81.6123 O.co2       1 CCT      -0.5727
     16 O16         8.8911   35.0199   79.9584 O.co2       1 CCT      -0.5727
     17 N17         6.8919   34.5505   77.7138 N.am        1 CCT      -0.1970
     18 S18         7.0150   35.9109   76.7215 S.o2        1 CCT       0.0842
     19 C19         8.8810   37.5211   75.3815 C.ar        1 CCT      -0.0191
     20 C20         8.6193   36.3903   76.2148 C.ar        1 CCT       0.1144
     21 C21         9.7028   35.6022   76.6643 C.ar        1 CCT      -0.0414
     22 C22        11.0264   35.9215   76.3168 C.ar        1 CCT      -0.0669
     23 C23        11.2862   37.0412   75.5110 C.ar        1 CCT      -0.0685
     24 C24        10.2233   37.8337   75.0478 C.ar        1 CCT      -0.0587
     25 C25         7.8407   38.4188   74.8131 C.3         1 CCT      -0.0292
     26 O26         6.3018   37.1531   77.4131 O.2         1 CCT      -0.1463
     27 O27         6.1274   35.6082   75.4367 O.2         1 CCT      -0.1463
     28 H1          0.2060   34.3008   82.4834 H           1 CCT       0.0708
     29 H2          0.0850   32.2246   78.8067 H           1 CCT       0.0708
     30 H3          2.3490   32.8208   78.3916 H           1 CCT       0.0633
     31 H4          2.4687   34.9068   82.0683 H           1 CCT       0.0633
     32 H5          4.3879   33.7722   77.8914 H           1 CCT       0.0467
     33 H6          6.9532   33.6919   77.2586 H           1 CCT       0.2106
     34 H7          9.5444   34.7832   77.2533 H           1 CCT       0.0619
     35 H8         11.7994   35.3426   76.6503 H           1 CCT       0.0560
     36 H9         12.2486   37.2823   75.2646 H           1 CCT       0.0599
     37 H10        10.4370   38.6454   74.4586 H           1 CCT       0.0557
     38 H11         6.8245   38.1397   75.0726 H           1 CCT       0.0391
     39 H12         7.9097   38.4162   73.7243 H           1 CCT       0.0391
     40 H13         8.0060   39.4360   75.1738 H           1 CCT       0.0391
@<TRIPOS>BOND
     1     1     2  ar
     2     6     1  ar
     3     3     2  ar
     4     2    12   1
     5     4     3  ar
     6     5     4  ar
     7     5     6  ar
     8    10     5   1
     9     8     7   2
    10     7    11   1
    11     7    14   1
    12     9     8   1
    13     8    17   1
    14     9    10   2
    15    10    11   1
    16    12    13   3
    17    14    15  ar
    18    14    16  ar
    19    17    18  am
    20    18    20   1
    21    18    26   2
    22    18    27   2
    23    20    19  ar
    24    19    24  ar
    25    19    25   1
    26    20    21  ar
    27    21    22  ar
    28    22    23  ar
    29    23    24  ar
    30     1    28   1
    31     3    29   1
    32     4    30   1
    33     6    31   1
    34     9    32   1
    35    17    33   1
    36    21    34   1
    37    22    35   1
    38    23    36   1
    39    24    37   1
    40    25    38   1
    41    25    39   1
    42    25    40   1
@<TRIPOS>SUBSTRUCTURE
     1  CCT      1

