@<TRIPOS>MOLECULE
2d3u_ligand_030
    40    42
SMALL
GAST_HUCK
****
This file was generated by PARSER (from files_GN.cpp)

@<TRIPOS>ATOM
      1 C1         -3.5202   38.1826   82.4797 C.ar        1 CCT      -0.0292
      2 C2         -4.3086   39.1222   83.1756 C.ar        1 CCT       0.0919
      3 C3         -3.9572   40.4874   83.1252 C.ar        1 CCT      -0.0292
      4 C4         -2.8275   40.9012   82.3960 C.ar        1 CCT      -0.0447
      5 C5         -2.0143   39.9719   81.6973 C.ar        1 CCT      -0.0014
      6 C6         -2.3911   38.6050   81.7528 C.ar        1 CCT      -0.0447
      7 C7          1.1541   41.6790   79.9280 C.2         1 CCT       0.0659
      8 C8          0.9999   40.3664   79.4629 C.2         1 CCT       0.0654
      9 C9         -0.1063   39.6947   80.0182 C.2         1 CCT      -0.0309
     10 C10        -0.8564   40.3979   80.9762 C.2         1 CCT       0.0389
     11 S11        -0.1123   41.9476   81.0588 S.3         1 CCT      -0.0497
     12 C12        -5.3454   38.7350   83.8631 C.1         1 CCT       0.0956
     13 N13        -6.2611   38.3929   84.4732 N.1         1 CCT      -0.3326
     14 C14         2.0150   42.6994   79.4646 C.2         1 CCT       0.0483
     15 O15         3.3400   42.6367   79.7287 O.co2       1 CCT      -0.5727
     16 O16         1.4798   43.9209   79.1698 O.co2       1 CCT      -0.5727
     17 N17         1.6922   39.8040   78.4410 N.am        1 CCT      -0.1970
     18 S18         3.2849   39.2562   78.5518 S.o2        1 CCT       0.0842
     19 C19         4.8128   36.9519   79.0379 C.ar        1 CCT      -0.0191
     20 C20         3.5253   37.5585   78.9443 C.ar        1 CCT       0.1144
     21 C21         2.3719   36.7960   79.2439 C.ar        1 CCT      -0.0414
     22 C22         2.4807   35.4475   79.6166 C.ar        1 CCT      -0.0669
     23 C23         3.7421   34.8419   79.6985 C.ar        1 CCT      -0.0685
     24 C24         4.8950   35.5901   79.4105 C.ar        1 CCT      -0.0587
     25 C25         6.1069   37.6401   78.7889 C.3         1 CCT      -0.0292
     26 O26         4.0527   40.0443   79.7044 O.2         1 CCT      -0.1463
     27 O27         4.0118   39.6568   77.1941 O.2         1 CCT      -0.1463
     28 H1         -3.7539   37.1859   82.5005 H           1 CCT       0.0708
     29 H2         -4.5157   41.1916   83.6196 H           1 CCT       0.0708
     30 H3         -2.6140   41.8986   82.3818 H           1 CCT       0.0633
     31 H4         -1.8383   37.8907   81.2766 H           1 CCT       0.0633
     32 H5         -0.3643   38.7503   79.7064 H           1 CCT       0.0467
     33 H6          1.1744   39.4565   77.6889 H           1 CCT       0.2106
     34 H7          1.4425   37.2111   79.1941 H           1 CCT       0.0619
     35 H8          1.6369   34.9069   79.8321 H           1 CCT       0.0560
     36 H9          3.8214   33.8610   79.9787 H           1 CCT       0.0599
     37 H10         5.8051   35.1254   79.4856 H           1 CCT       0.0557
     38 H11         6.0077   38.6822   78.5032 H           1 CCT       0.0391
     39 H12         6.6490   37.1314   77.9864 H           1 CCT       0.0391
     40 H13         6.7165   37.6081   79.6961 H           1 CCT       0.0391
@<TRIPOS>BOND
     1     1     2  ar
     2     6     1  ar
     3     3     2  ar
     4     2    12   1
     5     4     3  ar
     6     5     4  ar
     7     5     6  ar
     8    10     5   1
     9     8     7   2
    10     7    11   1
    11     7    14   1
    12     9     8   1
    13     8    17   1
    14     9    10   2
    15    10    11   1
    16    12    13   3
    17    14    15  ar
    18    14    16  ar
    19    17    18  am
    20    18    20   1
    21    18    26   2
    22    18    27   2
    23    20    19  ar
    24    19    24  ar
    25    19    25   1
    26    20    21  ar
    27    21    22  ar
    28    22    23  ar
    29    23    24  ar
    30     1    28   1
    31     3    29   1
    32     4    30   1
    33     6    31   1
    34     9    32   1
    35    17    33   1
    36    21    34   1
    37    22    35   1
    38    23    36   1
    39    24    37   1
    40    25    38   1
    41    25    39   1
    42    25    40   1
@<TRIPOS>SUBSTRUCTURE
     1  CCT      1

