@<TRIPOS>MOLECULE
2d3u_ligand_014
    40    42
SMALL
GAST_HUCK
****
This file was generated by PARSER (from files_GN.cpp)

@<TRIPOS>ATOM
      1 C1          3.8641   33.6928   82.4678 C.ar        1 CCT      -0.0292
      2 C2          4.2517   32.4129   82.9150 C.ar        1 CCT       0.0919
      3 C3          4.8264   31.5083   81.9970 C.ar        1 CCT      -0.0292
      4 C4          5.0242   31.8876   80.6568 C.ar        1 CCT      -0.0447
      5 C5          4.6644   33.1772   80.2002 C.ar        1 CCT      -0.0014
      6 C6          4.0685   34.0683   81.1286 C.ar        1 CCT      -0.0447
      7 C7          5.4105   33.7693   76.3193 C.2         1 CCT       0.0659
      8 C8          5.3730   34.9955   76.9910 C.2         1 CCT       0.0654
      9 C9          5.1022   34.8784   78.3718 C.2         1 CCT      -0.0309
     10 C10         4.9224   33.5718   78.8560 C.2         1 CCT       0.0389
     11 S11         5.0929   32.5462   77.4853 S.3         1 CCT      -0.0497
     12 C12         4.0734   32.0728   84.1595 C.1         1 CCT       0.0956
     13 N13         3.9130   31.7788   85.2574 N.1         1 CCT      -0.3326
     14 C14         5.7347   33.5131   74.9803 C.2         1 CCT       0.0483
     15 O15         6.8573   34.0514   74.4493 O.co2       1 CCT      -0.5727
     16 O16         5.0224   32.6357   74.2357 O.co2       1 CCT      -0.5727
     17 N17         5.4616   36.1879   76.3542 N.am        1 CCT      -0.1970
     18 S18         6.5459   37.4240   76.7296 S.o2        1 CCT       0.0842
     19 C19         9.1183   36.2877   76.8273 C.ar        1 CCT      -0.0191
     20 C20         8.2332   37.2586   76.2610 C.ar        1 CCT       0.1144
     21 C21         8.7409   38.1514   75.2836 C.ar        1 CCT      -0.0414
     22 C22        10.0849   38.1078   74.8767 C.ar        1 CCT      -0.0669
     23 C23        10.9488   37.1529   75.4292 C.ar        1 CCT      -0.0685
     24 C24        10.4630   36.2417   76.3809 C.ar        1 CCT      -0.0587
     25 C25         8.7384   35.2988   77.8713 C.3         1 CCT      -0.0292
     26 O26         6.4069   37.8727   78.2477 O.2         1 CCT      -0.1463
     27 O27         5.9074   38.6874   76.0038 O.2         1 CCT      -0.1463
     28 H1          3.4288   34.3643   83.1095 H           1 CCT       0.0708
     29 H2          5.1138   30.5708   82.2934 H           1 CCT       0.0708
     30 H3          5.4647   31.2158   80.0244 H           1 CCT       0.0633
     31 H4          3.7608   35.0013   80.8396 H           1 CCT       0.0633
     32 H5          5.0188   35.6978   78.9762 H           1 CCT       0.0467
     33 H6          4.9031   36.3185   75.5631 H           1 CCT       0.2106
     34 H7          8.1443   38.8601   74.8542 H           1 CCT       0.0619
     35 H8         10.4381   38.7708   74.1816 H           1 CCT       0.0560
     36 H9         11.9300   37.1222   75.1433 H           1 CCT       0.0599
     37 H10        11.1155   35.5472   76.7615 H           1 CCT       0.0557
     38 H11         7.7661   35.4909   78.3120 H           1 CCT       0.0391
     39 H12         9.4623   35.3172   78.6880 H           1 CCT       0.0391
     40 H13         8.7256   34.2977   77.4374 H           1 CCT       0.0391
@<TRIPOS>BOND
     1     1     2  ar
     2     6     1  ar
     3     3     2  ar
     4     2    12   1
     5     4     3  ar
     6     5     4  ar
     7     5     6  ar
     8    10     5   1
     9     8     7   2
    10     7    11   1
    11     7    14   1
    12     9     8   1
    13     8    17   1
    14     9    10   2
    15    10    11   1
    16    12    13   3
    17    14    15  ar
    18    14    16  ar
    19    17    18  am
    20    18    20   1
    21    18    26   2
    22    18    27   2
    23    20    19  ar
    24    19    24  ar
    25    19    25   1
    26    20    21  ar
    27    21    22  ar
    28    22    23  ar
    29    23    24  ar
    30     1    28   1
    31     3    29   1
    32     4    30   1
    33     6    31   1
    34     9    32   1
    35    17    33   1
    36    21    34   1
    37    22    35   1
    38    23    36   1
    39    24    37   1
    40    25    38   1
    41    25    39   1
    42    25    40   1
@<TRIPOS>SUBSTRUCTURE
     1  CCT      1

