@<TRIPOS>MOLECULE
2d3u_ligand_024
    40    42
SMALL
GAST_HUCK
****
This file was generated by PARSER (from files_GN.cpp)

@<TRIPOS>ATOM
      1 C1         11.5566   28.4892   73.1298 C.ar        1 CCT      -0.0292
      2 C2         12.0400   28.8676   71.8656 C.ar        1 CCT       0.0919
      3 C3         13.4086   28.6943   71.5707 C.ar        1 CCT      -0.0292
      4 C4         14.2785   28.1351   72.5344 C.ar        1 CCT      -0.0447
      5 C5         13.8013   27.7476   73.8188 C.ar        1 CCT      -0.0014
      6 C6         12.4228   27.9326   74.0861 C.ar        1 CCT      -0.0447
      7 C7         15.7951   25.6837   76.6186 C.2         1 CCT       0.0659
      8 C8         16.6785   26.3559   75.7636 C.2         1 CCT       0.0654
      9 C9         16.0683   27.1601   74.7803 C.2         1 CCT      -0.0309
     10 C10        14.6710   27.1358   74.7574 C.2         1 CCT       0.0389
     11 S11        14.2171   26.0790   76.0477 S.3         1 CCT      -0.0497
     12 C12        11.2403   29.3503   70.9608 C.1         1 CCT       0.0956
     13 N13        10.5326   29.7794   70.1647 N.1         1 CCT      -0.3326
     14 C14        16.0724   24.8107   77.6830 C.2         1 CCT       0.0483
     15 O15        15.3601   23.6784   77.8499 O.co2       1 CCT      -0.5727
     16 O16        16.9815   25.1353   78.6437 O.co2       1 CCT      -0.5727
     17 N17        18.0107   26.1484   75.7667 N.am        1 CCT      -0.1970
     18 S18        18.7484   25.2061   74.5763 S.o2        1 CCT       0.0842
     19 C19        17.2104   25.5428   72.2412 C.ar        1 CCT      -0.0191
     20 C20        18.4366   25.7660   72.9439 C.ar        1 CCT       0.1144
     21 C21        19.4337   26.5756   72.3479 C.ar        1 CCT      -0.0414
     22 C22        19.2398   27.1517   71.0799 C.ar        1 CCT      -0.0669
     23 C23        18.0370   26.9316   70.3850 C.ar        1 CCT      -0.0685
     24 C24        17.0379   26.1329   70.9596 C.ar        1 CCT      -0.0587
     25 C25        16.0419   24.7749   72.7433 C.3         1 CCT      -0.0292
     26 O26        18.4408   23.6597   74.7939 O.2         1 CCT      -0.1463
     27 O27        20.3035   25.3216   74.8952 O.2         1 CCT      -0.1463
     28 H1         10.5692   28.6119   73.3680 H           1 CCT       0.0708
     29 H2         13.7904   28.9492   70.6523 H           1 CCT       0.0708
     30 H3         15.2575   28.0094   72.2753 H           1 CCT       0.0633
     31 H4         12.0355   27.6702   74.9981 H           1 CCT       0.0633
     32 H5         16.6281   27.7034   74.1252 H           1 CCT       0.0467
     33 H6         18.5495   26.4886   76.5078 H           1 CCT       0.2106
     34 H7         20.2839   26.8050   72.8530 H           1 CCT       0.0619
     35 H8         19.9596   27.7549   70.6795 H           1 CCT       0.0560
     36 H9         17.8885   27.3800   69.4863 H           1 CCT       0.0599
     37 H10        16.1657   26.0090   70.4363 H           1 CCT       0.0557
     38 H11        16.2087   24.3191   73.7147 H           1 CCT       0.0391
     39 H12        15.7909   23.9788   72.0291 H           1 CCT       0.0391
     40 H13        15.1803   25.4472   72.8278 H           1 CCT       0.0391
@<TRIPOS>BOND
     1     1     2  ar
     2     6     1  ar
     3     3     2  ar
     4     2    12   1
     5     4     3  ar
     6     5     4  ar
     7     5     6  ar
     8    10     5   1
     9     8     7   2
    10     7    11   1
    11     7    14   1
    12     9     8   1
    13     8    17   1
    14     9    10   2
    15    10    11   1
    16    12    13   3
    17    14    15  ar
    18    14    16  ar
    19    17    18  am
    20    18    20   1
    21    18    26   2
    22    18    27   2
    23    20    19  ar
    24    19    24  ar
    25    19    25   1
    26    20    21  ar
    27    21    22  ar
    28    22    23  ar
    29    23    24  ar
    30     1    28   1
    31     3    29   1
    32     4    30   1
    33     6    31   1
    34     9    32   1
    35    17    33   1
    36    21    34   1
    37    22    35   1
    38    23    36   1
    39    24    37   1
    40    25    38   1
    41    25    39   1
    42    25    40   1
@<TRIPOS>SUBSTRUCTURE
     1  CCT      1

