@<TRIPOS>MOLECULE
2d3u_ligand_038
    40    42
SMALL
GAST_HUCK
****
This file was generated by PARSER (from files_GN.cpp)

@<TRIPOS>ATOM
      1 C1         12.5883   30.6321   74.9764 C.ar        1 CCT      -0.0292
      2 C2         11.6935   30.3374   76.0269 C.ar        1 CCT       0.0919
      3 C3         12.0354   29.3381   76.9602 C.ar        1 CCT      -0.0292
      4 C4         13.2528   28.6422   76.8399 C.ar        1 CCT      -0.0447
      5 C5         14.1666   28.9212   75.7898 C.ar        1 CCT      -0.0014
      6 C6         13.8019   29.9300   74.8620 C.ar        1 CCT      -0.0447
      7 C7         17.6301   26.9166   76.1040 C.2         1 CCT       0.0659
      8 C8         17.5081   27.4638   74.8127 C.2         1 CCT       0.0654
      9 C9         16.3187   28.1915   74.6116 C.2         1 CCT      -0.0309
     10 C10        15.4199   28.2439   75.6955 C.2         1 CCT       0.0389
     11 S11        16.1913   27.3416   76.9473 S.3         1 CCT      -0.0497
     12 C12        10.5690   30.9868   76.1309 C.1         1 CCT       0.0956
     13 N13         9.5767   31.5597   76.2174 N.1         1 CCT      -0.3326
     14 C14        18.7017   26.2283   76.6899 C.2         1 CCT       0.0483
     15 O15        18.5407   25.5526   77.8471 O.co2       1 CCT      -0.5727
     16 O16        19.9337   26.2193   76.1276 O.co2       1 CCT      -0.5727
     17 N17        18.3910   27.3090   73.7982 N.am        1 CCT      -0.1970
     18 S18        18.5271   25.8078   73.0341 S.o2        1 CCT       0.0842
     19 C19        16.1445   24.7186   71.9254 C.ar        1 CCT      -0.0191
     20 C20        17.0351   24.8881   73.0288 C.ar        1 CCT       0.1144
     21 C21        16.7050   24.2858   74.2673 C.ar        1 CCT      -0.0414
     22 C22        15.5261   23.5477   74.4355 C.ar        1 CCT      -0.0669
     23 C23        14.6630   23.3562   73.3469 C.ar        1 CCT      -0.0685
     24 C24        14.9786   23.9266   72.1001 C.ar        1 CCT      -0.0587
     25 C25        16.3176   25.3069   70.5779 C.3         1 CCT      -0.0292
     26 O26        19.6632   24.9381   73.7352 O.2         1 CCT      -0.1463
     27 O27        19.1520   26.0851   71.5914 O.2         1 CCT      -0.1463
     28 H1         12.3708   31.3634   74.2939 H           1 CCT       0.0708
     29 H2         11.4073   29.1112   77.7368 H           1 CCT       0.0708
     30 H3         13.4611   27.9224   77.5358 H           1 CCT       0.0633
     31 H4         14.4299   30.1920   74.0988 H           1 CCT       0.0633
     32 H5         16.1142   28.6221   73.7074 H           1 CCT       0.0467
     33 H6         18.5023   28.0774   73.2139 H           1 CCT       0.2106
     34 H7         17.3315   24.3704   75.0753 H           1 CCT       0.0619
     35 H8         15.2981   23.1419   75.3456 H           1 CCT       0.0560
     36 H9         13.8103   22.8003   73.4606 H           1 CCT       0.0599
     37 H10        14.3327   23.7701   71.3258 H           1 CCT       0.0557
     38 H11        17.1226   26.0400   70.5287 H           1 CCT       0.0391
     39 H12        15.4096   25.8312   70.2971 H           1 CCT       0.0391
     40 H13        16.5188   24.5139   69.8540 H           1 CCT       0.0391
@<TRIPOS>BOND
     1     1     2  ar
     2     6     1  ar
     3     3     2  ar
     4     2    12   1
     5     4     3  ar
     6     5     4  ar
     7     5     6  ar
     8    10     5   1
     9     8     7   2
    10     7    11   1
    11     7    14   1
    12     9     8   1
    13     8    17   1
    14     9    10   2
    15    10    11   1
    16    12    13   3
    17    14    15  ar
    18    14    16  ar
    19    17    18  am
    20    18    20   1
    21    18    26   2
    22    18    27   2
    23    20    19  ar
    24    19    24  ar
    25    19    25   1
    26    20    21  ar
    27    21    22  ar
    28    22    23  ar
    29    23    24  ar
    30     1    28   1
    31     3    29   1
    32     4    30   1
    33     6    31   1
    34     9    32   1
    35    17    33   1
    36    21    34   1
    37    22    35   1
    38    23    36   1
    39    24    37   1
    40    25    38   1
    41    25    39   1
    42    25    40   1
@<TRIPOS>SUBSTRUCTURE
     1  CCT      1

