@<TRIPOS>MOLECULE
2d3u_ligand_001
    40    42
SMALL
GAST_HUCK
****
This file was generated by PARSER (from files_GN.cpp)

@<TRIPOS>ATOM
      1 C1         13.0104   22.9874   71.9451 C.ar        1 CCT      -0.0292
      2 C2         13.3771   22.9026   70.5872 C.ar        1 CCT       0.0919
      3 C3         14.6024   23.4586   70.1686 C.ar        1 CCT      -0.0292
      4 C4         15.4526   24.0873   71.0998 C.ar        1 CCT      -0.0447
      5 C5         15.1056   24.1756   72.4725 C.ar        1 CCT      -0.0014
      6 C6         13.8660   23.6149   72.8712 C.ar        1 CCT      -0.0447
      7 C7         17.2538   25.5584   75.5538 C.2         1 CCT       0.0659
      8 C8         17.8352   25.9729   74.3433 C.2         1 CCT       0.0654
      9 C9         17.1173   25.5682   73.1986 C.2         1 CCT      -0.0309
     10 C10        15.9793   24.7740   73.4276 C.2         1 CCT       0.0389
     11 S11        15.8526   24.6527   75.1432 S.3         1 CCT      -0.0497
     12 C12        12.5957   22.3176   69.7262 C.1         1 CCT       0.0956
     13 N13        11.9120   21.8009   68.9585 N.1         1 CCT      -0.3326
     14 C14        17.6481   25.8277   76.8727 C.2         1 CCT       0.0483
     15 O15        18.8283   25.3425   77.3246 O.co2       1 CCT      -0.5727
     16 O16        16.7192   26.1088   77.8113 O.co2       1 CCT      -0.5727
     17 N17        18.9067   26.7963   74.2235 N.am        1 CCT      -0.1970
     18 S18        20.4772   26.1898   74.3472 S.o2        1 CCT       0.0842
     19 C19        21.6004   27.0875   71.9147 C.ar        1 CCT      -0.0191
     20 C20        21.5737   27.1220   73.3431 C.ar        1 CCT       0.1144
     21 C21        22.4844   27.9755   74.0155 C.ar        1 CCT      -0.0414
     22 C22        23.4299   28.7413   73.3143 C.ar        1 CCT      -0.0669
     23 C23        23.4890   28.6633   71.9161 C.ar        1 CCT      -0.0685
     24 C24        22.5731   27.8567   71.2230 C.ar        1 CCT      -0.0587
     25 C25        20.6644   26.3060   71.0650 C.3         1 CCT      -0.0292
     26 O26        20.5076   24.6534   73.9292 O.2         1 CCT      -0.1463
     27 O27        20.9437   26.2837   75.8654 O.2         1 CCT      -0.1463
     28 H1         12.1267   22.5876   72.2798 H           1 CCT       0.0708
     29 H2         14.8948   23.4069   69.1858 H           1 CCT       0.0708
     30 H3         16.3420   24.4545   70.7557 H           1 CCT       0.0633
     31 H4         13.5617   23.6534   73.8457 H           1 CCT       0.0633
     32 H5         17.4212   25.8470   72.2677 H           1 CCT       0.0467
     33 H6         18.8048   27.5270   73.5886 H           1 CCT       0.2106
     34 H7         22.4803   28.0548   75.0323 H           1 CCT       0.0619
     35 H8         24.0777   29.3484   73.8221 H           1 CCT       0.0560
     36 H9         24.1937   29.2074   71.4080 H           1 CCT       0.0599
     37 H10        22.6185   27.8479   70.2008 H           1 CCT       0.0557
     38 H11        19.8935   25.7922   71.6340 H           1 CCT       0.0391
     39 H12        21.2212   25.5569   70.4982 H           1 CCT       0.0391
     40 H13        20.1602   26.9747   70.3633 H           1 CCT       0.0391
@<TRIPOS>BOND
     1     1     2  ar
     2     6     1  ar
     3     3     2  ar
     4     2    12   1
     5     4     3  ar
     6     5     4  ar
     7     5     6  ar
     8    10     5   1
     9     8     7   2
    10     7    11   1
    11     7    14   1
    12     9     8   1
    13     8    17   1
    14     9    10   2
    15    10    11   1
    16    12    13   3
    17    14    15  ar
    18    14    16  ar
    19    17    18  am
    20    18    20   1
    21    18    26   2
    22    18    27   2
    23    20    19  ar
    24    19    24  ar
    25    19    25   1
    26    20    21  ar
    27    21    22  ar
    28    22    23  ar
    29    23    24  ar
    30     1    28   1
    31     3    29   1
    32     4    30   1
    33     6    31   1
    34     9    32   1
    35    17    33   1
    36    21    34   1
    37    22    35   1
    38    23    36   1
    39    24    37   1
    40    25    38   1
    41    25    39   1
    42    25    40   1
@<TRIPOS>SUBSTRUCTURE
     1  CCT      1

