@<TRIPOS>MOLECULE
2d3u_ligand_017
    40    42
SMALL
GAST_HUCK
****
This file was generated by PARSER (from files_GN.cpp)

@<TRIPOS>ATOM
      1 C1         10.1865   29.8647   77.3836 C.ar        1 CCT      -0.0292
      2 C2          9.6837   29.2586   76.2129 C.ar        1 CCT       0.0919
      3 C3          8.5705   29.8308   75.5632 C.ar        1 CCT      -0.0292
      4 C4          7.9684   30.9914   76.0837 C.ar        1 CCT      -0.0447
      5 C5          8.4539   31.6088   77.2620 C.ar        1 CCT      -0.0014
      6 C6          9.5740   31.0224   77.9007 C.ar        1 CCT      -0.0447
      7 C7          6.9133   34.7390   79.2359 C.2         1 CCT       0.0659
      8 C8          6.5571   34.7957   77.8797 C.2         1 CCT       0.0654
      9 C9          7.0488   33.7218   77.1079 C.2         1 CCT      -0.0309
     10 C10         7.8295   32.7750   77.7871 C.2         1 CCT       0.0389
     11 S11         7.8877   33.3251   79.4179 S.3         1 CCT      -0.0497
     12 C12        10.2347   28.1761   75.7379 C.1         1 CCT       0.0956
     13 N13        10.7155   27.2187   75.3195 N.1         1 CCT      -0.3326
     14 C14         6.6672   35.6562   80.2805 C.2         1 CCT       0.0483
     15 O15         5.9952   36.8147   80.0793 O.co2       1 CCT      -0.5727
     16 O16         7.2274   35.4976   81.4949 O.co2       1 CCT      -0.5727
     17 N17         5.9280   35.8761   77.3597 N.am        1 CCT      -0.1970
     18 S18         6.4910   36.6698   75.9760 S.o2        1 CCT       0.0842
     19 C19         8.8342   36.8607   74.4255 C.ar        1 CCT      -0.0191
     20 C20         8.2268   36.6870   75.7082 C.ar        1 CCT       0.1144
     21 C21         9.0683   36.4598   76.8232 C.ar        1 CCT      -0.0414
     22 C22        10.4500   36.2544   76.6750 C.ar        1 CCT      -0.0669
     23 C23        11.0323   36.3457   75.4051 C.ar        1 CCT      -0.0685
     24 C24        10.2336   36.6702   74.2952 C.ar        1 CCT      -0.0587
     25 C25         8.1223   37.2737   73.1888 C.3         1 CCT      -0.0292
     26 O26         6.0236   38.1808   76.1324 O.2         1 CCT      -0.1463
     27 O27         5.6622   36.0692   74.7540 O.2         1 CCT      -0.1463
     28 H1         11.0004   29.4703   77.8678 H           1 CCT       0.0708
     29 H2          8.1847   29.4100   74.7120 H           1 CCT       0.0708
     30 H3          7.1509   31.3614   75.5972 H           1 CCT       0.0633
     31 H4          9.9702   31.4349   78.7475 H           1 CCT       0.0633
     32 H5          6.8729   33.6641   76.0993 H           1 CCT       0.0467
     33 H6          5.3783   36.4081   77.9644 H           1 CCT       0.2106
     34 H7          8.6900   36.4320   77.7672 H           1 CCT       0.0619
     35 H8         11.0299   36.0516   77.4904 H           1 CCT       0.0560
     36 H9         12.0381   36.2095   75.2937 H           1 CCT       0.0599
     37 H10        10.6923   36.7784   73.3850 H           1 CCT       0.0557
     38 H11         7.0873   37.5606   73.3592 H           1 CCT       0.0391
     39 H12         8.1377   36.4607   72.4637 H           1 CCT       0.0391
     40 H13         8.6124   38.1442   72.7528 H           1 CCT       0.0391
@<TRIPOS>BOND
     1     1     2  ar
     2     6     1  ar
     3     3     2  ar
     4     2    12   1
     5     4     3  ar
     6     5     4  ar
     7     5     6  ar
     8    10     5   1
     9     8     7   2
    10     7    11   1
    11     7    14   1
    12     9     8   1
    13     8    17   1
    14     9    10   2
    15    10    11   1
    16    12    13   3
    17    14    15  ar
    18    14    16  ar
    19    17    18  am
    20    18    20   1
    21    18    26   2
    22    18    27   2
    23    20    19  ar
    24    19    24  ar
    25    19    25   1
    26    20    21  ar
    27    21    22  ar
    28    22    23  ar
    29    23    24  ar
    30     1    28   1
    31     3    29   1
    32     4    30   1
    33     6    31   1
    34     9    32   1
    35    17    33   1
    36    21    34   1
    37    22    35   1
    38    23    36   1
    39    24    37   1
    40    25    38   1
    41    25    39   1
    42    25    40   1
@<TRIPOS>SUBSTRUCTURE
     1  CCT      1

