@<TRIPOS>MOLECULE
2d3u_ligand_012
    40    42
SMALL
GAST_HUCK
****
This file was generated by PARSER (from files_GN.cpp)

@<TRIPOS>ATOM
      1 C1         -1.1182   36.3288   81.7372 C.ar        1 CCT      -0.0292
      2 C2         -0.9177   37.6048   82.3040 C.ar        1 CCT       0.0919
      3 C3          0.3306   38.2427   82.1391 C.ar        1 CCT      -0.0292
      4 C4          1.3577   37.6123   81.4166 C.ar        1 CCT      -0.0447
      5 C5          1.1728   36.3321   80.8353 C.ar        1 CCT      -0.0014
      6 C6         -0.0852   35.7016   81.0149 C.ar        1 CCT      -0.0447
      7 C7          3.8223   34.0978   78.8571 C.2         1 CCT       0.0659
      8 C8          4.1705   35.4496   78.7416 C.2         1 CCT       0.0654
      9 C9          3.2922   36.3162   79.4284 C.2         1 CCT      -0.0309
     10 C10         2.2125   35.7059   80.0914 C.2         1 CCT       0.0389
     11 S11         2.4063   34.0152   79.8220 S.3         1 CCT      -0.0497
     12 C12        -1.8688   38.1864   82.9757 C.1         1 CCT       0.0956
     13 N13        -2.7062   38.6984   83.5700 N.1         1 CCT      -0.3326
     14 C14         4.5082   32.9863   78.3577 C.2         1 CCT       0.0483
     15 O15         4.1521   32.4665   77.1667 O.co2       1 CCT      -0.5727
     16 O16         5.2690   32.2504   79.1955 O.co2       1 CCT      -0.5727
     17 N17         5.2542   35.8428   78.0203 N.am        1 CCT      -0.1970
     18 S18         6.3441   37.0098   78.5647 S.o2        1 CCT       0.0842
     19 C19         8.2238   37.1684   76.4515 C.ar        1 CCT      -0.0191
     20 C20         7.8923   36.7444   77.7776 C.ar        1 CCT       0.1144
     21 C21         8.8454   36.0069   78.5160 C.ar        1 CCT      -0.0414
     22 C22        10.1106   35.7078   77.9861 C.ar        1 CCT      -0.0669
     23 C23        10.4520   36.1448   76.7006 C.ar        1 CCT      -0.0685
     24 C24         9.5162   36.8716   75.9460 C.ar        1 CCT      -0.0587
     25 C25         7.3094   37.8929   75.5260 C.3         1 CCT      -0.0292
     26 O26         6.4940   36.8293   80.1418 O.2         1 CCT      -0.1463
     27 O27         5.7582   38.4669   78.3510 O.2         1 CCT      -0.1463
     28 H1         -2.0179   35.8471   81.8397 H           1 CCT       0.0708
     29 H2          0.5045   39.1689   82.5428 H           1 CCT       0.0708
     30 H3          2.2521   38.0999   81.3365 H           1 CCT       0.0633
     31 H4         -0.2744   34.7847   80.6045 H           1 CCT       0.0633
     32 H5          3.4212   37.3286   79.4154 H           1 CCT       0.0467
     33 H6          5.5951   35.2129   77.3652 H           1 CCT       0.2106
     34 H7          8.6360   35.6649   79.4572 H           1 CCT       0.0619
     35 H8         10.7800   35.1691   78.5443 H           1 CCT       0.0560
     36 H9         11.3724   35.9266   76.3155 H           1 CCT       0.0599
     37 H10         9.7882   37.1670   74.9995 H           1 CCT       0.0557
     38 H11         6.2929   38.0101   75.8995 H           1 CCT       0.0391
     39 H12         7.2359   37.3471   74.5801 H           1 CCT       0.0391
     40 H13         7.7149   38.8870   75.3209 H           1 CCT       0.0391
@<TRIPOS>BOND
     1     1     2  ar
     2     6     1  ar
     3     3     2  ar
     4     2    12   1
     5     4     3  ar
     6     5     4  ar
     7     5     6  ar
     8    10     5   1
     9     8     7   2
    10     7    11   1
    11     7    14   1
    12     9     8   1
    13     8    17   1
    14     9    10   2
    15    10    11   1
    16    12    13   3
    17    14    15  ar
    18    14    16  ar
    19    17    18  am
    20    18    20   1
    21    18    26   2
    22    18    27   2
    23    20    19  ar
    24    19    24  ar
    25    19    25   1
    26    20    21  ar
    27    21    22  ar
    28    22    23  ar
    29    23    24  ar
    30     1    28   1
    31     3    29   1
    32     4    30   1
    33     6    31   1
    34     9    32   1
    35    17    33   1
    36    21    34   1
    37    22    35   1
    38    23    36   1
    39    24    37   1
    40    25    38   1
    41    25    39   1
    42    25    40   1
@<TRIPOS>SUBSTRUCTURE
     1  CCT      1

