@<TRIPOS>MOLECULE
2d3u_ligand_016
    40    42
SMALL
GAST_HUCK
****
This file was generated by PARSER (from files_GN.cpp)

@<TRIPOS>ATOM
      1 C1         12.7682   29.6434   75.3735 C.ar        1 CCT      -0.0292
      2 C2         13.0202   30.4904   74.2764 C.ar        1 CCT       0.0919
      3 C3         14.2307   30.3592   73.5700 C.ar        1 CCT      -0.0292
      4 C4         15.1727   29.3889   73.9517 C.ar        1 CCT      -0.0447
      5 C5         14.9362   28.5235   75.0495 C.ar        1 CCT      -0.0014
      6 C6         13.7129   28.6714   75.7524 C.ar        1 CCT      -0.0447
      7 C7         17.2758   25.6764   76.5678 C.2         1 CCT       0.0659
      8 C8         18.0476   26.5734   75.8147 C.2         1 CCT       0.0654
      9 C9         17.2918   27.5736   75.1953 C.2         1 CCT      -0.0309
     10 C10        15.9139   27.5705   75.4701 C.2         1 CCT       0.0389
     11 S11        15.6387   26.1918   76.4600 S.3         1 CCT      -0.0497
     12 C12        12.1354   31.3828   73.9106 C.1         1 CCT       0.0956
     13 N13        11.3685   32.1700   73.5844 N.1         1 CCT      -0.3326
     14 C14        17.7097   24.5421   77.2449 C.2         1 CCT       0.0483
     15 O15        17.2626   23.3181   76.8521 O.co2       1 CCT      -0.5727
     16 O16        18.6731   24.6607   78.2057 O.co2       1 CCT      -0.5727
     17 N17        19.3726   26.4404   75.5949 N.am        1 CCT      -0.1970
     18 S18        19.9208   25.7632   74.1550 S.o2        1 CCT       0.0842
     19 C19        18.8801   26.5940   71.6326 C.ar        1 CCT      -0.0191
     20 C20        18.7731   25.8243   72.8349 C.ar        1 CCT       0.1144
     21 C21        17.6154   25.0455   73.0444 C.ar        1 CCT      -0.0414
     22 C22        16.5793   25.0041   72.1090 C.ar        1 CCT      -0.0669
     23 C23        16.6749   25.7568   70.9360 C.ar        1 CCT      -0.0685
     24 C24        17.8166   26.5387   70.6977 C.ar        1 CCT      -0.0587
     25 C25        20.0135   27.4706   71.2385 C.3         1 CCT      -0.0292
     26 O26        20.2157   24.2358   74.4828 O.2         1 CCT      -0.1463
     27 O27        21.3810   26.3375   73.8981 O.2         1 CCT      -0.1463
     28 H1         11.9025   29.7256   75.9112 H           1 CCT       0.0708
     29 H2         14.4412   30.9673   72.7727 H           1 CCT       0.0708
     30 H3         16.0360   29.3123   73.4077 H           1 CCT       0.0633
     31 H4         13.5026   28.0857   76.5614 H           1 CCT       0.0633
     32 H5         17.7500   28.2709   74.6058 H           1 CCT       0.0467
     33 H6         19.9430   26.3109   76.3966 H           1 CCT       0.2106
     34 H7         17.5121   24.4717   73.8807 H           1 CCT       0.0619
     35 H8         15.7584   24.4238   72.2904 H           1 CCT       0.0560
     36 H9         15.9189   25.7258   70.2443 H           1 CCT       0.0599
     37 H10        17.8533   27.0889   69.8314 H           1 CCT       0.0557
     38 H11        20.7798   27.5706   71.9918 H           1 CCT       0.0391
     39 H12        19.6329   28.4725   71.0226 H           1 CCT       0.0391
     40 H13        20.4739   27.0882   70.3227 H           1 CCT       0.0391
@<TRIPOS>BOND
     1     1     2  ar
     2     6     1  ar
     3     3     2  ar
     4     2    12   1
     5     4     3  ar
     6     5     4  ar
     7     5     6  ar
     8    10     5   1
     9     8     7   2
    10     7    11   1
    11     7    14   1
    12     9     8   1
    13     8    17   1
    14     9    10   2
    15    10    11   1
    16    12    13   3
    17    14    15  ar
    18    14    16  ar
    19    17    18  am
    20    18    20   1
    21    18    26   2
    22    18    27   2
    23    20    19  ar
    24    19    24  ar
    25    19    25   1
    26    20    21  ar
    27    21    22  ar
    28    22    23  ar
    29    23    24  ar
    30     1    28   1
    31     3    29   1
    32     4    30   1
    33     6    31   1
    34     9    32   1
    35    17    33   1
    36    21    34   1
    37    22    35   1
    38    23    36   1
    39    24    37   1
    40    25    38   1
    41    25    39   1
    42    25    40   1
@<TRIPOS>SUBSTRUCTURE
     1  CCT      1

