@<TRIPOS>MOLECULE
2d3u_ligand_013
    40    42
SMALL
GAST_HUCK
****
This file was generated by PARSER (from files_GN.cpp)

@<TRIPOS>ATOM
      1 C1          7.7572   31.4642   80.5125 C.ar        1 CCT      -0.0292
      2 C2          9.0803   31.7193   80.0987 C.ar        1 CCT       0.0919
      3 C3          9.4462   33.0321   79.7378 C.ar        1 CCT      -0.0292
      4 C4          8.4976   34.0717   79.7881 C.ar        1 CCT      -0.0447
      5 C5          7.1614   33.8367   80.2043 C.ar        1 CCT      -0.0014
      6 C6          6.8161   32.5091   80.5632 C.ar        1 CCT      -0.0447
      7 C7          4.1373   36.4277   80.6522 C.2         1 CCT       0.0659
      8 C8          5.1384   36.9960   79.8504 C.2         1 CCT       0.0654
      9 C9          6.2585   36.1615   79.6714 C.2         1 CCT      -0.0309
     10 C10         6.1937   34.8865   80.2588 C.2         1 CCT       0.0389
     11 S11         4.6816   34.8570   81.0893 S.3         1 CCT      -0.0497
     12 C12         9.9518   30.7530   80.0505 C.1         1 CCT       0.0956
     13 N13        10.7207   29.8973   80.0082 N.1         1 CCT      -0.3326
     14 C14         2.9700   37.0250   81.1356 C.2         1 CCT       0.0483
     15 O15         1.8705   36.9747   80.3567 O.co2       1 CCT      -0.5727
     16 O16         2.7814   37.0859   82.4742 O.co2       1 CCT      -0.5727
     17 N17         5.1491   38.2439   79.3222 N.am        1 CCT      -0.1970
     18 S18         3.9516   38.7672   78.2579 S.o2        1 CCT       0.0842
     19 C19         3.1264   41.2054   79.3734 C.ar        1 CCT      -0.0191
     20 C20         2.7850   39.9160   78.8678 C.ar        1 CCT       0.1144
     21 C21         1.4271   39.5245   78.8317 C.ar        1 CCT      -0.0414
     22 C22         0.4167   40.3615   79.3202 C.ar        1 CCT      -0.0669
     23 C23         0.7417   41.6346   79.8049 C.ar        1 CCT      -0.0685
     24 C24         2.0831   42.0543   79.8199 C.ar        1 CCT      -0.0587
     25 C25         4.5080   41.7525   79.4565 C.3         1 CCT      -0.0292
     26 O26         3.3090   37.5148   77.5170 O.2         1 CCT      -0.1463
     27 O27         4.7149   39.4673   77.0518 O.2         1 CCT      -0.1463
     28 H1          7.4643   30.5189   80.7804 H           1 CCT       0.0708
     29 H2         10.4042   33.2442   79.4387 H           1 CCT       0.0708
     30 H3          8.8110   35.0086   79.5302 H           1 CCT       0.0633
     31 H4          5.8666   32.2766   80.8598 H           1 CCT       0.0633
     32 H5          7.0621   36.4801   79.1313 H           1 CCT       0.0467
     33 H6          6.0242   38.6336   79.1828 H           1 CCT       0.2106
     34 H7          1.1489   38.6164   78.4565 H           1 CCT       0.0619
     35 H8         -0.5510   40.0361   79.3242 H           1 CCT       0.0560
     36 H9          0.0017   42.2541   80.1402 H           1 CCT       0.0599
     37 H10         2.2922   42.9918   80.1722 H           1 CCT       0.0557
     38 H11         5.2782   41.0478   79.1529 H           1 CCT       0.0391
     39 H12         4.7233   42.0456   80.4853 H           1 CCT       0.0391
     40 H13         4.5908   42.6344   78.8169 H           1 CCT       0.0391
@<TRIPOS>BOND
     1     1     2  ar
     2     6     1  ar
     3     3     2  ar
     4     2    12   1
     5     4     3  ar
     6     5     4  ar
     7     5     6  ar
     8    10     5   1
     9     8     7   2
    10     7    11   1
    11     7    14   1
    12     9     8   1
    13     8    17   1
    14     9    10   2
    15    10    11   1
    16    12    13   3
    17    14    15  ar
    18    14    16  ar
    19    17    18  am
    20    18    20   1
    21    18    26   2
    22    18    27   2
    23    20    19  ar
    24    19    24  ar
    25    19    25   1
    26    20    21  ar
    27    21    22  ar
    28    22    23  ar
    29    23    24  ar
    30     1    28   1
    31     3    29   1
    32     4    30   1
    33     6    31   1
    34     9    32   1
    35    17    33   1
    36    21    34   1
    37    22    35   1
    38    23    36   1
    39    24    37   1
    40    25    38   1
    41    25    39   1
    42    25    40   1
@<TRIPOS>SUBSTRUCTURE
     1  CCT      1

