@<TRIPOS>MOLECULE
2fvd_ligand_042
    51    53
SMALL
GAST_HUCK
****
This file was generated by PARSER (from files_GN.cpp)

@<TRIPOS>ATOM
      1 N1         -7.4133   20.8060   20.0441 N.am        1 LIA      -0.2385
      2 C2         -7.0669   21.9995   19.3062 C.3         1 LIA       0.0314
      3 C3         -5.6326   22.4447   19.7013 C.3         1 LIA      -0.0122
      4 C4         -4.5957   21.3065   19.4388 C.3         1 LIA       0.0456
      5 C5         -5.0655   20.0259   20.1922 C.3         1 LIA      -0.0122
      6 C6         -6.5460   19.6587   19.8847 C.3         1 LIA       0.0314
      7 N7         -4.3959   21.0150   18.0410 N.pl3       1 LIA      -0.2866
      8 C8         -4.1005   21.9124   17.0732 C.ar        1 LIA       0.1789
      9 N9         -3.9660   21.5080   15.7863 N.ar        1 LIA      -0.2656
     10 C10        -3.7244   22.3872   14.7794 C.ar        1 LIA       0.0186
     11 C11        -3.6347   23.7872   15.0127 C.ar        1 LIA       0.0852
     12 C12        -3.7544   24.1698   16.3814 C.ar        1 LIA       0.1302
     13 N13        -3.9696   23.2374   17.3404 N.ar        1 LIA      -0.2356
     14 C14        -3.4168   24.6998   13.9601 C.2         1 LIA       0.1492
     15 O15        -3.2053   25.8863   14.1836 O.2         1 LIA      -0.3856
     16 C16        -3.2631   24.3450   12.6265 C.ar        1 LIA       0.0920
     17 C17        -1.9580   24.1682   12.0895 C.ar        1 LIA       0.1766
     18 C18        -1.7886   23.7874   10.7458 C.ar        1 LIA       0.1591
     19 C19        -2.9097   23.5659    9.9328 C.ar        1 LIA      -0.0338
     20 C20        -4.2044   23.7367   10.4524 C.ar        1 LIA      -0.0322
     21 C21        -4.3934   24.1514   11.7864 C.ar        1 LIA       0.1052
     22 O22        -5.6668   24.2763   12.2890 O.3         1 LIA      -0.3192
     23 C23        -6.5051   25.2237   11.6032 C.3         1 LIA       0.0603
     24 F24        -0.8938   24.3296   12.8381 F           1 LIA      -0.1811
     25 F25        -0.5932   23.6226   10.2473 F           1 LIA      -0.1924
     26 N26        -3.6977   25.4296   16.8571 N.pl3       1 LIA      -0.3135
     27 S27        -8.3163   20.9770   21.4719 S.o2        1 LIA       0.0385
     28 C28        -9.9018   21.8181   21.2908 C.3         1 LIA       0.0734
     29 O29        -7.4641   21.6998   22.6036 O.2         1 LIA      -0.1556
     30 O30        -8.7045   19.5549   22.0717 O.2         1 LIA      -0.1556
     31 H1         -7.7588   22.8245   19.4908 H           1 LIA       0.0479
     32 H2         -7.1048   21.7958   18.2316 H           1 LIA       0.0479
     33 H3         -5.6222   22.6902   20.7692 H           1 LIA       0.0304
     34 H4         -5.3640   23.3545   19.1628 H           1 LIA       0.0304
     35 H5         -3.6333   21.6091   19.8640 H           1 LIA       0.0563
     36 H6         -4.9777   20.2026   21.2686 H           1 LIA       0.0304
     37 H7         -4.4167   19.1829   19.9387 H           1 LIA       0.0304
     38 H8         -6.6208   19.2958   18.8586 H           1 LIA       0.0479
     39 H9         -6.8395   18.8276   20.5298 H           1 LIA       0.0479
     40 H10        -4.4858   20.0901   17.7648 H           1 LIA       0.1881
     41 H11        -3.6074   21.9955   13.8426 H           1 LIA       0.0904
     42 H12        -2.7897   23.2782    8.9566 H           1 LIA       0.0605
     43 H13        -5.0079   23.5591    9.8477 H           1 LIA       0.0512
     44 H14        -7.4468   25.3034   12.1518 H           1 LIA       0.0579
     45 H15        -6.7365   24.8918   10.5876 H           1 LIA       0.0579
     46 H16        -6.0442   26.2150   11.5683 H           1 LIA       0.0579
     47 H17        -3.7544   25.5811   17.8164 H           1 LIA       0.1831
     48 H18        -3.6575   26.1897   16.2572 H           1 LIA       0.1831
     49 H19       -10.4440   21.7732   22.2369 H           1 LIA       0.0482
     50 H20       -10.4925   21.3309   20.5144 H           1 LIA       0.0482
     51 H21        -9.7402   22.8619   21.0239 H           1 LIA       0.0482
@<TRIPOS>BOND
     1     1     2   1
     2     1     6   1
     3     1    27  am
     4     2     3   1
     5     3     4   1
     6     4     5   1
     7     4     7   1
     8     5     6   1
     9     7     8   1
    10     8     9  ar
    11     8    13  ar
    12     9    10  ar
    13    10    11  ar
    14    11    12  ar
    15    11    14   1
    16    12    13  ar
    17    12    26   1
    18    14    15   2
    19    14    16   1
    20    16    17  ar
    21    16    21  ar
    22    17    18  ar
    23    17    24   1
    24    18    19  ar
    25    18    25   1
    26    19    20  ar
    27    20    21  ar
    28    21    22   1
    29    22    23   1
    30    27    28   1
    31    27    29   2
    32    27    30   2
    33     2    31   1
    34     2    32   1
    35     3    33   1
    36     3    34   1
    37     4    35   1
    38     5    36   1
    39     5    37   1
    40     6    38   1
    41     6    39   1
    42     7    40   1
    43    10    41   1
    44    19    42   1
    45    20    43   1
    46    23    44   1
    47    23    45   1
    48    23    46   1
    49    26    47   1
    50    26    48   1
    51    28    49   1
    52    28    50   1
    53    28    51   1
@<TRIPOS>SUBSTRUCTURE
     1  LIA      2

