@<TRIPOS>MOLECULE
2fvd_ligand_014
    51    53
SMALL
GAST_HUCK
****
This file was generated by PARSER (from files_GN.cpp)

@<TRIPOS>ATOM
      1 N1          1.6914   29.2715    9.2102 N.am        1 LIA      -0.2385
      2 C2          2.3458   27.9873    9.2339 C.3         1 LIA       0.0314
      3 C3          1.8895   27.1249    8.0253 C.3         1 LIA      -0.0122
      4 C4          2.0187   27.8884    6.6748 C.3         1 LIA       0.0456
      5 C5          1.3840   29.3054    6.7722 C.3         1 LIA      -0.0122
      6 C6          1.8774   30.0761    8.0260 C.3         1 LIA       0.0314
      7 N7          3.3950   27.9968    6.2858 N.pl3       1 LIA      -0.2866
      8 C8          3.9099   27.6969    5.0724 C.ar        1 LIA       0.1789
      9 N9          5.2248   27.9550    4.8710 N.ar        1 LIA      -0.2656
     10 C10         5.8253   27.7132    3.6816 C.ar        1 LIA       0.0186
     11 C11         5.1094   27.1149    2.6223 C.ar        1 LIA       0.0852
     12 C12         3.7284   26.8912    2.8357 C.ar        1 LIA       0.1302
     13 N13         3.1804   27.1876    4.0430 N.ar        1 LIA      -0.2356
     14 C14         5.7356   26.8329    1.4226 C.2         1 LIA       0.1492
     15 O15         5.8128   27.7884    0.6583 O.2         1 LIA      -0.3856
     16 C16         6.1708   25.5550    1.0282 C.ar        1 LIA       0.0920
     17 C17         6.1451   25.1652   -0.3433 C.ar        1 LIA       0.1766
     18 C18         6.5802   23.8849   -0.7500 C.ar        1 LIA       0.1591
     19 C19         7.0550   22.9677    0.2000 C.ar        1 LIA      -0.0338
     20 C20         7.0965   23.3291    1.5540 C.ar        1 LIA      -0.0322
     21 C21         6.6787   24.6101    1.9710 C.ar        1 LIA       0.1052
     22 O22         6.7692   24.8863    3.3109 O.3         1 LIA      -0.3192
     23 C23         8.0617   25.3739    3.7218 C.3         1 LIA       0.0603
     24 F24         5.6629   25.9538   -1.2756 F           1 LIA      -0.1811
     25 F25         6.5265   23.5266   -2.0055 F           1 LIA      -0.1924
     26 N26         2.9059   26.4218    1.8799 N.pl3       1 LIA      -0.3135
     27 S27         0.3873   29.5458   10.2580 S.o2        1 LIA       0.0385
     28 C28         0.8319   29.4041   11.9995 C.3         1 LIA       0.0734
     29 O29        -0.8290   28.5794    9.9198 O.2         1 LIA      -0.1556
     30 O30        -0.1609   31.0337   10.1274 O.2         1 LIA      -0.1556
     31 H1          2.1458   27.4350   10.1549 H           1 LIA       0.0479
     32 H2          3.4284   28.1372    9.1842 H           1 LIA       0.0479
     33 H3          0.8418   26.8443    8.1690 H           1 LIA       0.0304
     34 H4          2.4758   26.2015    7.9897 H           1 LIA       0.0304
     35 H5          1.4558   27.3268    5.9266 H           1 LIA       0.0563
     36 H6          0.2978   29.2036    6.8295 H           1 LIA       0.0304
     37 H7          1.6147   29.8818    5.8718 H           1 LIA       0.0304
     38 H8          2.9435   30.3054    7.9159 H           1 LIA       0.0479
     39 H9          1.3566   31.0350    8.0813 H           1 LIA       0.0479
     40 H10         4.0067   28.3770    6.9365 H           1 LIA       0.1881
     41 H11         6.8109   27.9583    3.5791 H           1 LIA       0.0904
     42 H12         7.3641   22.0359   -0.0860 H           1 LIA       0.0605
     43 H13         7.4494   22.6587    2.2443 H           1 LIA       0.0512
     44 H14         7.9927   25.6564    4.7738 H           1 LIA       0.0579
     45 H15         8.3685   26.2568    3.1513 H           1 LIA       0.0579
     46 H16         8.8291   24.6029    3.6206 H           1 LIA       0.0579
     47 H17         1.9643   26.3208    2.0768 H           1 LIA       0.1831
     48 H18         3.2411   26.1702    1.0048 H           1 LIA       0.1831
     49 H19        -0.0280   29.6636   12.6186 H           1 LIA       0.0482
     50 H20         1.6534   30.0861   12.2224 H           1 LIA       0.0482
     51 H21         1.1400   28.3834   12.2277 H           1 LIA       0.0482
@<TRIPOS>BOND
     1     1     2   1
     2     1     6   1
     3     1    27  am
     4     2     3   1
     5     3     4   1
     6     4     5   1
     7     4     7   1
     8     5     6   1
     9     7     8   1
    10     8     9  ar
    11     8    13  ar
    12     9    10  ar
    13    10    11  ar
    14    11    12  ar
    15    11    14   1
    16    12    13  ar
    17    12    26   1
    18    14    15   2
    19    14    16   1
    20    16    17  ar
    21    16    21  ar
    22    17    18  ar
    23    17    24   1
    24    18    19  ar
    25    18    25   1
    26    19    20  ar
    27    20    21  ar
    28    21    22   1
    29    22    23   1
    30    27    28   1
    31    27    29   2
    32    27    30   2
    33     2    31   1
    34     2    32   1
    35     3    33   1
    36     3    34   1
    37     4    35   1
    38     5    36   1
    39     5    37   1
    40     6    38   1
    41     6    39   1
    42     7    40   1
    43    10    41   1
    44    19    42   1
    45    20    43   1
    46    23    44   1
    47    23    45   1
    48    23    46   1
    49    26    47   1
    50    26    48   1
    51    28    49   1
    52    28    50   1
    53    28    51   1
@<TRIPOS>SUBSTRUCTURE
     1  LIA      2

