@<TRIPOS>MOLECULE
2fvd_ligand_053
    51    53
SMALL
GAST_HUCK
****
This file was generated by PARSER (from files_GN.cpp)

@<TRIPOS>ATOM
      1 N1         -1.8090   29.8831   10.5487 N.am        1 LIA      -0.2385
      2 C2         -0.5343   29.5864   11.1517 C.3         1 LIA       0.0314
      3 C3          0.0020   28.2117   10.6870 C.3         1 LIA      -0.0122
      4 C4         -1.0473   27.0753   10.8814 C.3         1 LIA       0.0456
      5 C5         -2.3851   27.4846   10.2045 C.3         1 LIA      -0.0122
      6 C6         -2.8609   28.8991   10.6310 C.3         1 LIA       0.0314
      7 N7         -0.7133   25.7555   10.4160 N.pl3       1 LIA      -0.2866
      8 C8          0.4297   25.2722    9.8815 C.ar        1 LIA       0.1789
      9 N9          1.5629   25.9926    9.6888 N.ar        1 LIA      -0.2656
     10 C10         2.6951   25.4542    9.1869 C.ar        1 LIA       0.0186
     11 C11         2.7290   24.0907    8.8353 C.ar        1 LIA       0.0852
     12 C12         1.5375   23.3480    9.0180 C.ar        1 LIA       0.1302
     13 N13         0.4441   23.9602    9.5370 N.ar        1 LIA      -0.2356
     14 C14         3.8810   23.5367    8.3025 C.2         1 LIA       0.1492
     15 O15         3.8837   23.3309    7.0945 O.2         1 LIA      -0.3856
     16 C16         5.0682   23.4258    9.0289 C.ar        1 LIA       0.0920
     17 C17         5.1362   22.5895   10.1782 C.ar        1 LIA       0.1766
     18 C18         6.3520   22.4274   10.8762 C.ar        1 LIA       0.1591
     19 C19         7.5022   23.1131   10.4582 C.ar        1 LIA      -0.0338
     20 C20         7.4474   23.9512    9.3339 C.ar        1 LIA      -0.0322
     21 C21         6.2408   24.1203    8.6216 C.ar        1 LIA       0.1052
     22 O22         6.2131   24.9554    7.5259 O.3         1 LIA      -0.3192
     23 C23         6.7213   26.2826    7.7643 C.3         1 LIA       0.0603
     24 F24         4.0923   21.9237   10.6037 F           1 LIA      -0.1811
     25 F25         6.4219   21.6388   11.9182 F           1 LIA      -0.1924
     26 N26         1.4408   22.0403    8.7194 N.pl3       1 LIA      -0.3135
     27 S27        -2.2014   31.5089   10.2707 S.o2        1 LIA       0.0385
     28 C28        -1.1065   32.3495    9.1145 C.3         1 LIA       0.0734
     29 O29        -2.2434   32.3117   11.6417 O.2         1 LIA      -0.1556
     30 O30        -3.6829   31.6555    9.7156 O.2         1 LIA      -0.1556
     31 H1         -0.6427   29.5924   12.2394 H           1 LIA       0.0479
     32 H2          0.2157   30.3376   10.8895 H           1 LIA       0.0479
     33 H3          0.9081   27.9749   11.2518 H           1 LIA       0.0304
     34 H4          0.2666   28.2829    9.6259 H           1 LIA       0.0304
     35 H5         -1.2317   26.9768   11.9530 H           1 LIA       0.0563
     36 H6         -3.1632   26.7605   10.4666 H           1 LIA       0.0304
     37 H7         -2.2645   27.4657    9.1160 H           1 LIA       0.0304
     38 H8         -3.7016   29.1605    9.9844 H           1 LIA       0.0479
     39 H9         -3.2291   28.8629   11.6604 H           1 LIA       0.0479
     40 H10        -1.4185   25.0968   10.5248 H           1 LIA       0.1881
     41 H11         3.5108   26.0532    9.0577 H           1 LIA       0.0904
     42 H12         8.3801   23.0094   10.9711 H           1 LIA       0.0605
     43 H13         8.2863   24.4529    9.0366 H           1 LIA       0.0512
     44 H14         6.4929   26.8967    6.8960 H           1 LIA       0.0579
     45 H15         7.8054   26.2554    7.8848 H           1 LIA       0.0579
     46 H16         6.2686   26.7464    8.6436 H           1 LIA       0.0579
     47 H17         0.6042   21.5681    8.8616 H           1 LIA       0.1831
     48 H18         2.2037   21.5649    8.3527 H           1 LIA       0.1831
     49 H19        -1.3751   33.4050    9.0571 H           1 LIA       0.0482
     50 H20        -1.2030   31.8985    8.1267 H           1 LIA       0.0482
     51 H21        -0.0728   32.2630    9.4532 H           1 LIA       0.0482
@<TRIPOS>BOND
     1     1     2   1
     2     1     6   1
     3     1    27  am
     4     2     3   1
     5     3     4   1
     6     4     5   1
     7     4     7   1
     8     5     6   1
     9     7     8   1
    10     8     9  ar
    11     8    13  ar
    12     9    10  ar
    13    10    11  ar
    14    11    12  ar
    15    11    14   1
    16    12    13  ar
    17    12    26   1
    18    14    15   2
    19    14    16   1
    20    16    17  ar
    21    16    21  ar
    22    17    18  ar
    23    17    24   1
    24    18    19  ar
    25    18    25   1
    26    19    20  ar
    27    20    21  ar
    28    21    22   1
    29    22    23   1
    30    27    28   1
    31    27    29   2
    32    27    30   2
    33     2    31   1
    34     2    32   1
    35     3    33   1
    36     3    34   1
    37     4    35   1
    38     5    36   1
    39     5    37   1
    40     6    38   1
    41     6    39   1
    42     7    40   1
    43    10    41   1
    44    19    42   1
    45    20    43   1
    46    23    44   1
    47    23    45   1
    48    23    46   1
    49    26    47   1
    50    26    48   1
    51    28    49   1
    52    28    50   1
    53    28    51   1
@<TRIPOS>SUBSTRUCTURE
     1  LIA      2

