@<TRIPOS>MOLECULE
2fvd_ligand_074
    51    53
SMALL
GAST_HUCK
****
This file was generated by PARSER (from files_GN.cpp)

@<TRIPOS>ATOM
      1 N1         -0.5601   29.0356    8.0253 N.am        1 LIA      -0.2385
      2 C2         -0.4772   28.7982    6.6029 C.3         1 LIA       0.0314
      3 C3          0.6689   29.6522    5.9818 C.3         1 LIA      -0.0122
      4 C4          2.0318   29.4275    6.7088 C.3         1 LIA       0.0456
      5 C5          1.8096   29.6305    8.2435 C.3         1 LIA      -0.0122
      6 C6          0.6322   28.7742    8.7892 C.3         1 LIA       0.0314
      7 N7          2.6086   28.1957    6.2260 N.pl3       1 LIA      -0.2866
      8 C8          3.1194   27.1297    6.8845 C.ar        1 LIA       0.1789
      9 N9          3.2926   27.0660    8.2251 N.ar        1 LIA      -0.2656
     10 C10         3.7269   25.9406    8.8339 C.ar        1 LIA       0.0186
     11 C11         3.9959   24.7612    8.0961 C.ar        1 LIA       0.0852
     12 C12         3.8626   24.8710    6.6844 C.ar        1 LIA       0.1302
     13 N13         3.4289   26.0381    6.1374 N.ar        1 LIA      -0.2356
     14 C14         4.2988   23.5614    8.7615 C.2         1 LIA       0.1492
     15 O15         5.1121   22.7960    8.2572 O.2         1 LIA      -0.3856
     16 C16         3.7442   23.1941    9.9963 C.ar        1 LIA       0.0920
     17 C17         4.5396   22.6190   11.0255 C.ar        1 LIA       0.1766
     18 C18         3.9823   22.3225   12.2868 C.ar        1 LIA       0.1591
     19 C19         2.6236   22.5808   12.5367 C.ar        1 LIA      -0.0338
     20 C20         1.8122   23.1175   11.5229 C.ar        1 LIA      -0.0322
     21 C21         2.3559   23.4059   10.2533 C.ar        1 LIA       0.1052
     22 O22         1.5193   23.9562    9.3157 O.3         1 LIA      -0.3192
     23 C23         0.5310   23.0410    8.8058 C.3         1 LIA       0.0603
     24 F24         5.8244   22.4205   10.8542 F           1 LIA      -0.1811
     25 F25         4.7209   21.8317   13.2412 F           1 LIA      -0.1924
     26 N26         4.0588   23.8558    5.8232 N.pl3       1 LIA      -0.3135
     27 S27        -1.7422   30.0939    8.6261 S.o2        1 LIA       0.0385
     28 C28        -3.4506   29.5735    8.3646 C.3         1 LIA       0.0734
     29 O29        -1.5358   31.5644    8.0566 O.2         1 LIA      -0.1556
     30 O30        -1.6227   30.2011   10.2117 O.2         1 LIA      -0.1556
     31 H1         -1.4172   29.0225    6.0929 H           1 LIA       0.0479
     32 H2         -0.2702   27.7355    6.4359 H           1 LIA       0.0479
     33 H3          0.3966   30.7120    6.0625 H           1 LIA       0.0304
     34 H4          0.7551   29.4291    4.9095 H           1 LIA       0.0304
     35 H5          2.7125   30.2138    6.3772 H           1 LIA       0.0563
     36 H6          1.5556   30.6766    8.4174 H           1 LIA       0.0304
     37 H7          2.7184   29.4230    8.8046 H           1 LIA       0.0304
     38 H8          0.8683   27.7096    8.7070 H           1 LIA       0.0479
     39 H9          0.5075   28.9835    9.8571 H           1 LIA       0.0479
     40 H10         2.5944   28.0965    5.2618 H           1 LIA       0.1881
     41 H11         3.8267   25.9617    9.8482 H           1 LIA       0.0904
     42 H12         2.2196   22.3739   13.4486 H           1 LIA       0.0605
     43 H13         0.8290   23.3014   11.7167 H           1 LIA       0.0512
     44 H14         0.0015   23.5309    7.9935 H           1 LIA       0.0579
     45 H15        -0.1918   22.7900    9.5887 H           1 LIA       0.0579
     46 H16         0.9842   22.1248    8.4163 H           1 LIA       0.0579
     47 H17         3.9171   24.0035    4.8732 H           1 LIA       0.1831
     48 H18         4.3142   22.9764    6.1371 H           1 LIA       0.1831
     49 H19        -4.1260   30.2589    8.8747 H           1 LIA       0.0482
     50 H20        -3.5889   28.5675    8.7667 H           1 LIA       0.0482
     51 H21        -3.6759   29.5747    7.2968 H           1 LIA       0.0482
@<TRIPOS>BOND
     1     1     2   1
     2     1     6   1
     3     1    27  am
     4     2     3   1
     5     3     4   1
     6     4     5   1
     7     4     7   1
     8     5     6   1
     9     7     8   1
    10     8     9  ar
    11     8    13  ar
    12     9    10  ar
    13    10    11  ar
    14    11    12  ar
    15    11    14   1
    16    12    13  ar
    17    12    26   1
    18    14    15   2
    19    14    16   1
    20    16    17  ar
    21    16    21  ar
    22    17    18  ar
    23    17    24   1
    24    18    19  ar
    25    18    25   1
    26    19    20  ar
    27    20    21  ar
    28    21    22   1
    29    22    23   1
    30    27    28   1
    31    27    29   2
    32    27    30   2
    33     2    31   1
    34     2    32   1
    35     3    33   1
    36     3    34   1
    37     4    35   1
    38     5    36   1
    39     5    37   1
    40     6    38   1
    41     6    39   1
    42     7    40   1
    43    10    41   1
    44    19    42   1
    45    20    43   1
    46    23    44   1
    47    23    45   1
    48    23    46   1
    49    26    47   1
    50    26    48   1
    51    28    49   1
    52    28    50   1
    53    28    51   1
@<TRIPOS>SUBSTRUCTURE
     1  LIA      2

