@<TRIPOS>MOLECULE
2fvd_ligand_004
    51    53
SMALL
GAST_HUCK
****
This file was generated by PARSER (from files_GN.cpp)

@<TRIPOS>ATOM
      1 N1          5.0729   20.2775   11.5327 N.am        1 LIA      -0.2385
      2 C2          6.3081   20.5945   12.2192 C.3         1 LIA       0.0314
      3 C3          6.8841   21.9787   11.8079 C.3         1 LIA      -0.0122
      4 C4          6.9337   22.1435   10.2616 C.3         1 LIA       0.0456
      5 C5          5.5116   21.8572    9.6902 C.3         1 LIA      -0.0122
      6 C6          5.0241   20.4532   10.1054 C.3         1 LIA       0.0314
      7 N7          7.4286   23.4493    9.9254 N.pl3       1 LIA      -0.2866
      8 C8          7.5978   23.9457    8.6773 C.ar        1 LIA       0.1789
      9 N9          8.0693   25.2100    8.5225 N.ar        1 LIA      -0.2656
     10 C10         8.2184   25.7737    7.2970 C.ar        1 LIA       0.0186
     11 C11         7.8498   25.0642    6.1282 C.ar        1 LIA       0.0852
     12 C12         7.3807   23.7430    6.3052 C.ar        1 LIA       0.1302
     13 N13         7.2931   23.2340    7.5576 N.ar        1 LIA      -0.2356
     14 C14         7.9225   25.6746    4.8847 C.2         1 LIA       0.1492
     15 O15         9.0572   25.9895    4.5301 O.2         1 LIA      -0.3856
     16 C16         6.8079   26.0631    4.1045 C.ar        1 LIA       0.0920
     17 C17         6.9196   26.1436    2.6839 C.ar        1 LIA       0.1766
     18 C18         5.8351   26.5658    1.8811 C.ar        1 LIA       0.1591
     19 C19         4.6138   26.9098    2.4738 C.ar        1 LIA      -0.0338
     20 C20         4.4653   26.8163    3.8638 C.ar        1 LIA      -0.0322
     21 C21         5.5469   26.4175    4.6819 C.ar        1 LIA       0.1052
     22 O22         5.3193   26.3525    6.0373 O.3         1 LIA      -0.3192
     23 C23         5.0803   27.6184    6.6770 C.3         1 LIA       0.0603
     24 F24         8.0205   25.7983    2.0575 F           1 LIA      -0.1811
     25 F25         5.9507   26.6396    0.5821 F           1 LIA      -0.1924
     26 N26         7.0170   22.9468    5.2857 N.pl3       1 LIA      -0.3135
     27 S27         4.0272   19.1284   12.2150 S.o2        1 LIA       0.0385
     28 C28         2.2768   19.4292   11.8820 C.3         1 LIA       0.0734
     29 O29         4.1326   19.1807   13.8000 O.2         1 LIA      -0.1556
     30 O30         4.4207   17.6587   11.7563 O.2         1 LIA      -0.1556
     31 H1          7.0436   19.8170   11.9929 H           1 LIA       0.0479
     32 H2          6.1635   20.6052   13.3021 H           1 LIA       0.0479
     33 H3          7.8892   22.0881   12.2286 H           1 LIA       0.0304
     34 H4          6.2578   22.7643   12.2434 H           1 LIA       0.0304
     35 H5          7.6376   21.4058    9.8620 H           1 LIA       0.0563
     36 H6          5.5049   21.8948    8.6028 H           1 LIA       0.0304
     37 H7          4.8104   22.6093   10.0612 H           1 LIA       0.0304
     38 H8          4.0109   20.3340    9.7134 H           1 LIA       0.0479
     39 H9          5.6515   19.6907    9.6330 H           1 LIA       0.0479
     40 H10         7.6649   24.0387   10.6608 H           1 LIA       0.1881
     41 H11         8.5661   26.7338    7.2352 H           1 LIA       0.0904
     42 H12         3.8284   27.2192    1.8961 H           1 LIA       0.0605
     43 H13         3.5632   27.0511    4.2808 H           1 LIA       0.0512
     44 H14         5.0226   27.4515    7.7521 H           1 LIA       0.0579
     45 H15         4.1343   28.0555    6.3508 H           1 LIA       0.0579
     46 H16         5.8898   28.3247    6.4872 H           1 LIA       0.0579
     47 H17         6.6970   22.0507    5.4669 H           1 LIA       0.1831
     48 H18         7.0646   23.2643    4.3718 H           1 LIA       0.1831
     49 H19         1.6730   18.7370   12.4688 H           1 LIA       0.0482
     50 H20         2.0650   19.2755   10.8240 H           1 LIA       0.0482
     51 H21         2.0241   20.4530   12.1579 H           1 LIA       0.0482
@<TRIPOS>BOND
     1     1     2   1
     2     1     6   1
     3     1    27  am
     4     2     3   1
     5     3     4   1
     6     4     5   1
     7     4     7   1
     8     5     6   1
     9     7     8   1
    10     8     9  ar
    11     8    13  ar
    12     9    10  ar
    13    10    11  ar
    14    11    12  ar
    15    11    14   1
    16    12    13  ar
    17    12    26   1
    18    14    15   2
    19    14    16   1
    20    16    17  ar
    21    16    21  ar
    22    17    18  ar
    23    17    24   1
    24    18    19  ar
    25    18    25   1
    26    19    20  ar
    27    20    21  ar
    28    21    22   1
    29    22    23   1
    30    27    28   1
    31    27    29   2
    32    27    30   2
    33     2    31   1
    34     2    32   1
    35     3    33   1
    36     3    34   1
    37     4    35   1
    38     5    36   1
    39     5    37   1
    40     6    38   1
    41     6    39   1
    42     7    40   1
    43    10    41   1
    44    19    42   1
    45    20    43   1
    46    23    44   1
    47    23    45   1
    48    23    46   1
    49    26    47   1
    50    26    48   1
    51    28    49   1
    52    28    50   1
    53    28    51   1
@<TRIPOS>SUBSTRUCTURE
     1  LIA      2

