@<TRIPOS>MOLECULE
2fvd_ligand_021
    51    53
SMALL
GAST_HUCK
****
This file was generated by PARSER (from files_GN.cpp)

@<TRIPOS>ATOM
      1 N1         -1.9552   31.5532    9.4439 N.am        1 LIA      -0.2385
      2 C2         -2.6407   31.9595   10.6531 C.3         1 LIA       0.0314
      3 C3         -3.2846   30.7597   11.3949 C.3         1 LIA      -0.0122
      4 C4         -4.0891   29.8258   10.4429 C.3         1 LIA       0.0456
      5 C5         -3.2821   29.4829    9.1553 C.3         1 LIA      -0.0122
      6 C6         -2.6828   30.7470    8.4949 C.3         1 LIA       0.0314
      7 N7         -4.6145   28.6486   11.0828 N.pl3       1 LIA      -0.2866
      8 C8         -3.9138   27.6312   11.6493 C.ar        1 LIA       0.1789
      9 N9         -2.5604   27.6313   11.7390 N.ar        1 LIA      -0.2656
     10 C10        -1.8702   26.6220   12.2958 C.ar        1 LIA       0.0186
     11 C11        -2.5470   25.4861   12.7956 C.ar        1 LIA       0.0852
     12 C12        -3.9639   25.5156   12.7214 C.ar        1 LIA       0.1302
     13 N13        -4.5948   26.5741   12.1524 N.ar        1 LIA      -0.2356
     14 C14        -1.8567   24.4406   13.3822 C.2         1 LIA       0.1492
     15 O15        -1.4708   24.6146   14.5254 O.2         1 LIA      -0.3856
     16 C16        -1.2102   23.4729   12.6200 C.ar        1 LIA       0.0920
     17 C17         0.0971   23.6760   12.1033 C.ar        1 LIA       0.1766
     18 C18         0.7307   22.6696   11.3437 C.ar        1 LIA       0.1591
     19 C19         0.0831   21.4396   11.1275 C.ar        1 LIA      -0.0338
     20 C20        -1.1907   21.2128   11.6710 C.ar        1 LIA      -0.0322
     21 C21        -1.8360   22.2143   12.4267 C.ar        1 LIA       0.1052
     22 O22        -3.0900   21.9597   12.9249 O.3         1 LIA      -0.3192
     23 C23        -3.0894   21.2873   14.1969 C.3         1 LIA       0.0603
     24 F24         0.7644   24.7773   12.3302 F           1 LIA      -0.1811
     25 F25         1.9189   22.8636   10.8421 F           1 LIA      -0.1924
     26 N26        -4.7489   24.5353   13.2035 N.pl3       1 LIA      -0.3135
     27 S27        -0.6918   32.5228    8.8688 S.o2        1 LIA       0.0385
     28 C28         0.5288   31.6701    7.8377 C.3         1 LIA       0.0734
     29 O29         0.1570   33.0747   10.0938 O.2         1 LIA      -0.1556
     30 O30        -1.2857   33.7625    8.0784 O.2         1 LIA      -0.1556
     31 H1         -3.4184   32.6797   10.3936 H           1 LIA       0.0479
     32 H2         -1.9569   32.4496   11.3512 H           1 LIA       0.0479
     33 H3         -3.9469   31.1307   12.1841 H           1 LIA       0.0304
     34 H4         -2.4733   30.2144   11.8775 H           1 LIA       0.0304
     35 H5         -4.9693   30.3956   10.1204 H           1 LIA       0.0563
     36 H6         -3.9301   28.9694    8.4391 H           1 LIA       0.0304
     37 H7         -2.4546   28.8105    9.3887 H           1 LIA       0.0304
     38 H8         -2.0379   30.4094    7.6800 H           1 LIA       0.0479
     39 H9         -3.4829   31.3434    8.0495 H           1 LIA       0.0479
     40 H10        -5.5755   28.5474   11.0850 H           1 LIA       0.1881
     41 H11        -0.8499   26.7210   12.3589 H           1 LIA       0.0904
     42 H12         0.5431   20.7077   10.5812 H           1 LIA       0.0605
     43 H13        -1.6460   20.3108   11.5167 H           1 LIA       0.0512
     44 H14        -4.1229   21.2005   14.5354 H           1 LIA       0.0579
     45 H15        -2.5316   21.8495   14.9499 H           1 LIA       0.0579
     46 H16        -2.6721   20.2820   14.1138 H           1 LIA       0.0579
     47 H17        -5.7126   24.5994   13.1199 H           1 LIA       0.1831
     48 H18        -4.3515   23.7737   13.6475 H           1 LIA       0.1831
     49 H19         1.3488   32.3515    7.6165 H           1 LIA       0.0482
     50 H20         0.0750   31.3589    6.8997 H           1 LIA       0.0482
     51 H21         0.9113   30.7964    8.3648 H           1 LIA       0.0482
@<TRIPOS>BOND
     1     1     2   1
     2     1     6   1
     3     1    27  am
     4     2     3   1
     5     3     4   1
     6     4     5   1
     7     4     7   1
     8     5     6   1
     9     7     8   1
    10     8     9  ar
    11     8    13  ar
    12     9    10  ar
    13    10    11  ar
    14    11    12  ar
    15    11    14   1
    16    12    13  ar
    17    12    26   1
    18    14    15   2
    19    14    16   1
    20    16    17  ar
    21    16    21  ar
    22    17    18  ar
    23    17    24   1
    24    18    19  ar
    25    18    25   1
    26    19    20  ar
    27    20    21  ar
    28    21    22   1
    29    22    23   1
    30    27    28   1
    31    27    29   2
    32    27    30   2
    33     2    31   1
    34     2    32   1
    35     3    33   1
    36     3    34   1
    37     4    35   1
    38     5    36   1
    39     5    37   1
    40     6    38   1
    41     6    39   1
    42     7    40   1
    43    10    41   1
    44    19    42   1
    45    20    43   1
    46    23    44   1
    47    23    45   1
    48    23    46   1
    49    26    47   1
    50    26    48   1
    51    28    49   1
    52    28    50   1
    53    28    51   1
@<TRIPOS>SUBSTRUCTURE
     1  LIA      2

