@<TRIPOS>MOLECULE
2fvd_ligand_036
    51    53
SMALL
GAST_HUCK
****
This file was generated by PARSER (from files_GN.cpp)

@<TRIPOS>ATOM
      1 N1          6.4583   22.8447    8.0341 N.am        1 LIA      -0.2385
      2 C2          5.7558   22.6173    9.2717 C.3         1 LIA       0.0314
      3 C3          4.2787   23.0756    9.1941 C.3         1 LIA      -0.0122
      4 C4          4.1656   24.5455    8.6908 C.3         1 LIA       0.0456
      5 C5          4.9131   24.6589    7.3321 C.3         1 LIA      -0.0122
      6 C6          6.3777   24.1558    7.4360 C.3         1 LIA       0.0314
      7 N7          2.8137   24.9970    8.5335 N.pl3       1 LIA      -0.2866
      8 C8          1.8697   25.0769    9.4985 C.ar        1 LIA       0.1789
      9 N9          2.0597   24.6796   10.7797 N.ar        1 LIA      -0.2656
     10 C10         1.0727   24.7308   11.7051 C.ar        1 LIA       0.0186
     11 C11        -0.2245   25.2109   11.3812 C.ar        1 LIA       0.0852
     12 C12        -0.3786   25.6505   10.0291 C.ar        1 LIA       0.1302
     13 N13         0.6553   25.5608    9.1561 N.ar        1 LIA      -0.2356
     14 C14        -1.2374   25.1774   12.3652 C.2         1 LIA       0.1492
     15 O15        -1.0053   24.7668   13.4977 O.2         1 LIA      -0.3856
     16 C16        -2.5724   25.4570   12.1256 C.ar        1 LIA       0.0920
     17 C17        -3.0495   26.7890   12.2248 C.ar        1 LIA       0.1766
     18 C18        -4.3877   27.0849   11.8938 C.ar        1 LIA       0.1591
     19 C19        -5.2620   26.0550   11.5040 C.ar        1 LIA      -0.0338
     20 C20        -4.8026   24.7293   11.4320 C.ar        1 LIA      -0.0322
     21 C21        -3.4574   24.4216   11.7235 C.ar        1 LIA       0.1052
     22 O22        -3.0560   23.1087   11.6734 O.3         1 LIA      -0.3192
     23 C23        -2.5279   22.6940   10.3992 C.3         1 LIA       0.0603
     24 F24        -2.2504   27.7679   12.5726 F           1 LIA      -0.1811
     25 F25        -4.8252   28.3145   11.9246 F           1 LIA      -0.1924
     26 N26        -1.5012   26.1425    9.4722 N.pl3       1 LIA      -0.3135
     27 S27         7.8095   21.8688    7.7281 S.o2        1 LIA       0.0385
     28 C28         7.3977   20.1359    7.4394 C.3         1 LIA       0.0734
     29 O29         8.8516   21.9816    8.9236 O.2         1 LIA      -0.1556
     30 O30         8.5880   22.3381    6.4225 O.2         1 LIA      -0.1556
     31 H1          6.2647   23.1637   10.0721 H           1 LIA       0.0479
     32 H2          5.7523   21.5595    9.5479 H           1 LIA       0.0479
     33 H3          3.8474   22.9703   10.1901 H           1 LIA       0.0304
     34 H4          3.7277   22.4155    8.5166 H           1 LIA       0.0304
     35 H5          4.6543   25.2114    9.4067 H           1 LIA       0.0563
     36 H6          4.9123   25.6990    6.9931 H           1 LIA       0.0304
     37 H7          4.3881   24.0607    6.5793 H           1 LIA       0.0304
     38 H8          6.7938   24.1619    6.4267 H           1 LIA       0.0479
     39 H9          6.9592   24.8561    8.0420 H           1 LIA       0.0479
     40 H10         2.5551   25.3070    7.6518 H           1 LIA       0.1881
     41 H11         1.2947   24.3797   12.6391 H           1 LIA       0.0904
     42 H12        -6.2368   26.2660   11.2802 H           1 LIA       0.0605
     43 H13        -5.4489   23.9849   11.1597 H           1 LIA       0.0512
     44 H14        -2.2554   21.6414   10.4730 H           1 LIA       0.0579
     45 H15        -1.6261   23.2436   10.1330 H           1 LIA       0.0579
     46 H16        -3.2661   22.8097    9.6014 H           1 LIA       0.0579
     47 H17        -1.5030   26.3969    8.5351 H           1 LIA       0.1831
     48 H18        -2.3161   26.2281    9.9806 H           1 LIA       0.1831
     49 H19         8.3109   19.5690    7.2520 H           1 LIA       0.0482
     50 H20         6.7372   20.0557    6.5750 H           1 LIA       0.0482
     51 H21         6.8975   19.7213    8.3149 H           1 LIA       0.0482
@<TRIPOS>BOND
     1     1     2   1
     2     1     6   1
     3     1    27  am
     4     2     3   1
     5     3     4   1
     6     4     5   1
     7     4     7   1
     8     5     6   1
     9     7     8   1
    10     8     9  ar
    11     8    13  ar
    12     9    10  ar
    13    10    11  ar
    14    11    12  ar
    15    11    14   1
    16    12    13  ar
    17    12    26   1
    18    14    15   2
    19    14    16   1
    20    16    17  ar
    21    16    21  ar
    22    17    18  ar
    23    17    24   1
    24    18    19  ar
    25    18    25   1
    26    19    20  ar
    27    20    21  ar
    28    21    22   1
    29    22    23   1
    30    27    28   1
    31    27    29   2
    32    27    30   2
    33     2    31   1
    34     2    32   1
    35     3    33   1
    36     3    34   1
    37     4    35   1
    38     5    36   1
    39     5    37   1
    40     6    38   1
    41     6    39   1
    42     7    40   1
    43    10    41   1
    44    19    42   1
    45    20    43   1
    46    23    44   1
    47    23    45   1
    48    23    46   1
    49    26    47   1
    50    26    48   1
    51    28    49   1
    52    28    50   1
    53    28    51   1
@<TRIPOS>SUBSTRUCTURE
     1  LIA      2

