@<TRIPOS>MOLECULE
2fvd_ligand_013
    51    53
SMALL
GAST_HUCK
****
This file was generated by PARSER (from files_GN.cpp)

@<TRIPOS>ATOM
      1 N1          5.9679   27.2091    5.9454 N.am        1 LIA      -0.2385
      2 C2          5.3194   27.7184    4.7604 C.3         1 LIA       0.0314
      3 C3          3.8309   27.2870    4.7398 C.3         1 LIA      -0.0122
      4 C4          3.1038   27.6660    6.0613 C.3         1 LIA       0.0456
      5 C5          3.9206   27.1722    7.2983 C.3         1 LIA      -0.0122
      6 C6          5.4104   27.6057    7.2171 C.3         1 LIA       0.0314
      7 N7          2.8558   29.0813    6.1281 N.pl3       1 LIA      -0.2866
      8 C8          1.8952   29.6691    6.8835 C.ar        1 LIA       0.1789
      9 N9          1.7934   31.0192    6.9123 N.ar        1 LIA      -0.2656
     10 C10         0.8615   31.6467    7.6770 C.ar        1 LIA       0.0186
     11 C11        -0.0560   30.9110    8.4713 C.ar        1 LIA       0.0852
     12 C12         0.0544   29.4959    8.3794 C.ar        1 LIA       0.1302
     13 N13         1.0218   28.9400    7.6127 N.ar        1 LIA      -0.2356
     14 C14        -0.9626   31.5679    9.3204 C.2         1 LIA       0.1492
     15 O15        -0.7280   32.7085    9.6975 O.2         1 LIA      -0.3856
     16 C16        -2.2082   31.0683    9.6728 C.ar        1 LIA       0.0920
     17 C17        -3.2229   30.9206    8.6926 C.ar        1 LIA       0.1766
     18 C18        -4.4884   30.4098    9.0481 C.ar        1 LIA       0.1591
     19 C19        -4.7616   30.0620   10.3807 C.ar        1 LIA      -0.0338
     20 C20        -3.7650   30.2142   11.3568 C.ar        1 LIA      -0.0322
     21 C21        -2.4788   30.6866   11.0146 C.ar        1 LIA       0.1052
     22 O22        -1.5131   30.7982   11.9905 O.3         1 LIA      -0.3192
     23 C23        -0.9566   29.5480   12.4526 C.3         1 LIA       0.0603
     24 F24        -3.0240   31.2872    7.4508 F           1 LIA      -0.1811
     25 F25        -5.4324   30.2853    8.1536 F           1 LIA      -0.1924
     26 N26        -0.7038   28.5941    9.0222 N.pl3       1 LIA      -0.3135
     27 S27         6.9439   25.8269    5.8780 S.o2        1 LIA       0.0385
     28 C28         7.6812   25.4242    4.2818 C.3         1 LIA       0.0734
     29 O29         6.1360   24.5530    6.3834 O.2         1 LIA      -0.1556
     30 O30         8.1925   26.0714    6.8361 O.2         1 LIA      -0.1556
     31 H1          5.8027   27.3878    3.8401 H           1 LIA       0.0479
     32 H2          5.3770   28.8085    4.7672 H           1 LIA       0.0479
     33 H3          3.7820   26.2024    4.6099 H           1 LIA       0.0304
     34 H4          3.3210   27.7461    3.8900 H           1 LIA       0.0304
     35 H5          2.1453   27.1420    6.0395 H           1 LIA       0.0563
     36 H6          3.8721   26.0804    7.3419 H           1 LIA       0.0304
     37 H7          3.4804   27.5577    8.2227 H           1 LIA       0.0304
     38 H8          5.4762   28.6919    7.3129 H           1 LIA       0.0479
     39 H9          5.9598   27.1794    8.0618 H           1 LIA       0.0479
     40 H10         3.4388   29.6691    5.6219 H           1 LIA       0.1881
     41 H11         0.8446   32.6685    7.6611 H           1 LIA       0.0904
     42 H12        -5.6781   29.6953   10.6455 H           1 LIA       0.0605
     43 H13        -3.9789   29.9559   12.3202 H           1 LIA       0.0512
     44 H14        -0.2275   29.7586   13.2346 H           1 LIA       0.0579
     45 H15        -0.4347   29.0176   11.6593 H           1 LIA       0.0579
     46 H16        -1.7237   28.8890   12.8672 H           1 LIA       0.0579
     47 H17        -0.5134   27.6507    8.9178 H           1 LIA       0.1831
     48 H18        -1.4050   28.8712    9.6265 H           1 LIA       0.1831
     49 H19         8.3544   24.5732    4.3886 H           1 LIA       0.0482
     50 H20         8.2408   26.2828    3.9093 H           1 LIA       0.0482
     51 H21         6.8937   25.1649    3.5749 H           1 LIA       0.0482
@<TRIPOS>BOND
     1     1     2   1
     2     1     6   1
     3     1    27  am
     4     2     3   1
     5     3     4   1
     6     4     5   1
     7     4     7   1
     8     5     6   1
     9     7     8   1
    10     8     9  ar
    11     8    13  ar
    12     9    10  ar
    13    10    11  ar
    14    11    12  ar
    15    11    14   1
    16    12    13  ar
    17    12    26   1
    18    14    15   2
    19    14    16   1
    20    16    17  ar
    21    16    21  ar
    22    17    18  ar
    23    17    24   1
    24    18    19  ar
    25    18    25   1
    26    19    20  ar
    27    20    21  ar
    28    21    22   1
    29    22    23   1
    30    27    28   1
    31    27    29   2
    32    27    30   2
    33     2    31   1
    34     2    32   1
    35     3    33   1
    36     3    34   1
    37     4    35   1
    38     5    36   1
    39     5    37   1
    40     6    38   1
    41     6    39   1
    42     7    40   1
    43    10    41   1
    44    19    42   1
    45    20    43   1
    46    23    44   1
    47    23    45   1
    48    23    46   1
    49    26    47   1
    50    26    48   1
    51    28    49   1
    52    28    50   1
    53    28    51   1
@<TRIPOS>SUBSTRUCTURE
     1  LIA      2

