@<TRIPOS>MOLECULE
2fvd_ligand_050
    51    53
SMALL
GAST_HUCK
****
This file was generated by PARSER (from files_GN.cpp)

@<TRIPOS>ATOM
      1 N1         -6.6146   21.4259   19.6765 N.am        1 LIA      -0.2385
      2 C2         -6.3938   22.6236   18.8987 C.3         1 LIA       0.0314
      3 C3         -5.6207   22.3444   17.5850 C.3         1 LIA      -0.0122
      4 C4         -4.3251   21.5179   17.8337 C.3         1 LIA       0.0456
      5 C5         -4.6639   20.2534   18.6735 C.3         1 LIA      -0.0122
      6 C6         -5.4817   20.5771   19.9482 C.3         1 LIA       0.0314
      7 N7         -3.7254   21.0888   16.6058 N.pl3       1 LIA      -0.2866
      8 C8         -3.2464   21.8558   15.6030 C.ar        1 LIA       0.1789
      9 N9         -2.8911   21.2282   14.4528 N.ar        1 LIA      -0.2656
     10 C10        -2.4354   21.9061   13.3709 C.ar        1 LIA       0.0186
     11 C11        -2.3101   23.3131   13.4121 C.ar        1 LIA       0.0852
     12 C12        -2.7052   23.9476   14.6188 C.ar        1 LIA       0.1302
     13 N13        -3.1438   23.2088   15.6709 N.ar        1 LIA      -0.2356
     14 C14        -1.8899   24.0161   12.2929 C.2         1 LIA       0.1492
     15 O15        -2.7890   24.4519   11.5816 O.2         1 LIA      -0.3856
     16 C16        -0.5935   24.5314   12.1878 C.ar        1 LIA       0.0920
     17 C17        -0.3643   25.9216   11.9870 C.ar        1 LIA       0.1766
     18 C18         0.9460   26.4303   11.8814 C.ar        1 LIA       0.1591
     19 C19         2.0504   25.5642   11.9686 C.ar        1 LIA      -0.0338
     20 C20         1.8429   24.1906   12.1667 C.ar        1 LIA      -0.0322
     21 C21         0.5352   23.6674   12.2444 C.ar        1 LIA       0.1052
     22 O22         0.3955   22.3118   12.3920 O.3         1 LIA      -0.3192
     23 C23         0.4202   21.5972   11.1368 C.3         1 LIA       0.0603
     24 F24        -1.3514   26.7801   11.9336 F           1 LIA      -0.1811
     25 F25         1.1654   27.7073   11.7080 F           1 LIA      -0.1924
     26 N26        -2.7102   25.2880   14.7529 N.pl3       1 LIA      -0.3135
     27 S27        -7.8683   21.4681   20.8163 S.o2        1 LIA       0.0385
     28 C28        -7.5531   22.5732   22.2022 C.3         1 LIA       0.0734
     29 O29        -8.1712   20.0099   21.3773 O.2         1 LIA      -0.1556
     30 O30        -9.2267   21.8859   20.1009 O.2         1 LIA      -0.1556
     31 H1         -5.8332   23.3423   19.5093 H           1 LIA       0.0479
     32 H2         -7.3443   23.0946   18.6287 H           1 LIA       0.0479
     33 H3         -5.3681   23.3000   17.1175 H           1 LIA       0.0304
     34 H4         -6.2791   21.8030   16.9018 H           1 LIA       0.0304
     35 H5         -3.6071   22.1243   18.3911 H           1 LIA       0.0563
     36 H6         -3.7368   19.7530   18.9630 H           1 LIA       0.0304
     37 H7         -5.2462   19.5571   18.0607 H           1 LIA       0.0304
     38 H8         -5.8017   19.6209   20.3734 H           1 LIA       0.0479
     39 H9         -4.8372   21.0662   20.6820 H           1 LIA       0.0479
     40 H10        -3.6844   20.1343   16.4532 H           1 LIA       0.1881
     41 H11        -2.1971   21.3789   12.5277 H           1 LIA       0.0904
     42 H12         3.0064   25.9230   11.8844 H           1 LIA       0.0605
     43 H13         2.6501   23.5637   12.2222 H           1 LIA       0.0512
     44 H14         0.2636   20.5371   11.3454 H           1 LIA       0.0579
     45 H15         1.3903   21.7041   10.6353 H           1 LIA       0.0579
     46 H16        -0.3773   21.9290   10.4602 H           1 LIA       0.0579
     47 H17        -3.0352   25.6898   15.5712 H           1 LIA       0.1831
     48 H18        -2.4468   25.8549   14.0103 H           1 LIA       0.1831
     49 H19        -8.4054   22.5617   22.8790 H           1 LIA       0.0482
     50 H20        -7.3989   23.5854   21.8333 H           1 LIA       0.0482
     51 H21        -6.6629   22.2416   22.7335 H           1 LIA       0.0482
@<TRIPOS>BOND
     1     1     2   1
     2     1     6   1
     3     1    27  am
     4     2     3   1
     5     3     4   1
     6     4     5   1
     7     4     7   1
     8     5     6   1
     9     7     8   1
    10     8     9  ar
    11     8    13  ar
    12     9    10  ar
    13    10    11  ar
    14    11    12  ar
    15    11    14   1
    16    12    13  ar
    17    12    26   1
    18    14    15   2
    19    14    16   1
    20    16    17  ar
    21    16    21  ar
    22    17    18  ar
    23    17    24   1
    24    18    19  ar
    25    18    25   1
    26    19    20  ar
    27    20    21  ar
    28    21    22   1
    29    22    23   1
    30    27    28   1
    31    27    29   2
    32    27    30   2
    33     2    31   1
    34     2    32   1
    35     3    33   1
    36     3    34   1
    37     4    35   1
    38     5    36   1
    39     5    37   1
    40     6    38   1
    41     6    39   1
    42     7    40   1
    43    10    41   1
    44    19    42   1
    45    20    43   1
    46    23    44   1
    47    23    45   1
    48    23    46   1
    49    26    47   1
    50    26    48   1
    51    28    49   1
    52    28    50   1
    53    28    51   1
@<TRIPOS>SUBSTRUCTURE
     1  LIA      2

