@<TRIPOS>MOLECULE
2fvd_ligand_073
    51    53
SMALL
GAST_HUCK
****
This file was generated by PARSER (from files_GN.cpp)

@<TRIPOS>ATOM
      1 N1          0.5162   28.3995    8.9542 N.am        1 LIA      -0.2385
      2 C2          0.4216   27.8354    7.6302 C.3         1 LIA       0.0314
      3 C3          1.8162   27.5102    7.0377 C.3         1 LIA      -0.0122
      4 C4          2.8436   28.6721    7.1965 C.3         1 LIA       0.0456
      5 C5          2.8450   29.2246    8.6444 C.3         1 LIA      -0.0122
      6 C6          1.4115   29.5081    9.1690 C.3         1 LIA       0.0314
      7 N7          4.1748   28.3577    6.7445 N.pl3       1 LIA      -0.2866
      8 C8          4.9456   27.2995    7.1025 C.ar        1 LIA       0.1789
      9 N9          4.5622   26.3995    8.0460 N.ar        1 LIA      -0.2656
     10 C10         5.2686   25.2829    8.3208 C.ar        1 LIA       0.0186
     11 C11         6.4618   25.0028    7.6220 C.ar        1 LIA       0.0852
     12 C12         6.8836   25.9759    6.6821 C.ar        1 LIA       0.1302
     13 N13         6.1170   27.0797    6.4525 N.ar        1 LIA      -0.2356
     14 C14         7.1499   23.8249    7.8727 C.2         1 LIA       0.1492
     15 O15         7.6155   23.7518    9.0026 O.2         1 LIA      -0.3856
     16 C16         7.2311   22.7181    7.0017 C.ar        1 LIA       0.0920
     17 C17         8.2345   21.7162    7.1982 C.ar        1 LIA       0.1766
     18 C18         8.3258   20.5986    6.3453 C.ar        1 LIA       0.1591
     19 C19         7.4260   20.4515    5.2803 C.ar        1 LIA      -0.0338
     20 C20         6.4316   21.4134    5.0669 C.ar        1 LIA      -0.0322
     21 C21         6.3147   22.5286    5.9212 C.ar        1 LIA       0.1052
     22 O22         5.3119   23.4208    5.6366 O.3         1 LIA      -0.3192
     23 C23         4.0035   23.0266    6.0895 C.3         1 LIA       0.0603
     24 F24         9.1217   21.7983    8.1578 F           1 LIA      -0.1811
     25 F25         9.2497   19.6916    6.5261 F           1 LIA      -0.1924
     26 N26         8.0499   25.8722    6.0194 N.pl3       1 LIA      -0.3135
     27 S27        -0.7280   28.1248   10.0751 S.o2        1 LIA       0.0385
     28 C28        -2.3280   27.6941    9.3653 C.3         1 LIA       0.0734
     29 O29        -1.0242   29.4451   10.9137 O.2         1 LIA      -0.1556
     30 O30        -0.3014   26.9965   11.1096 O.2         1 LIA      -0.1556
     31 H1         -0.1001   28.5393    6.9791 H           1 LIA       0.0479
     32 H2         -0.1515   26.9018    7.6447 H           1 LIA       0.0479
     33 H3          1.7168   27.2664    5.9780 H           1 LIA       0.0304
     34 H4          2.1593   26.6150    7.5560 H           1 LIA       0.0304
     35 H5          2.4950   29.4866    6.5532 H           1 LIA       0.0563
     36 H6          3.4188   30.1559    8.6720 H           1 LIA       0.0304
     37 H7          3.3338   28.5067    9.3049 H           1 LIA       0.0304
     38 H8          1.4955   29.7448   10.2326 H           1 LIA       0.0479
     39 H9          1.0006   30.3886    8.6648 H           1 LIA       0.0479
     40 H10         4.5484   28.9653    6.0834 H           1 LIA       0.1881
     41 H11         4.8967   24.6313    9.0181 H           1 LIA       0.0904
     42 H12         7.4937   19.6440    4.6573 H           1 LIA       0.0605
     43 H13         5.7826   21.2943    4.2871 H           1 LIA       0.0512
     44 H14         3.3315   23.8702    5.9372 H           1 LIA       0.0579
     45 H15         3.9996   22.7731    7.1508 H           1 LIA       0.0579
     46 H16         3.6238   22.1795    5.5143 H           1 LIA       0.0579
     47 H17         8.3323   26.5910    5.4316 H           1 LIA       0.1831
     48 H18         8.6305   25.1089    6.1712 H           1 LIA       0.1831
     49 H19        -3.0779   27.6483   10.1567 H           1 LIA       0.0482
     50 H20        -2.2615   26.7221    8.8812 H           1 LIA       0.0482
     51 H21        -2.6192   28.4502    8.6353 H           1 LIA       0.0482
@<TRIPOS>BOND
     1     1     2   1
     2     1     6   1
     3     1    27  am
     4     2     3   1
     5     3     4   1
     6     4     5   1
     7     4     7   1
     8     5     6   1
     9     7     8   1
    10     8     9  ar
    11     8    13  ar
    12     9    10  ar
    13    10    11  ar
    14    11    12  ar
    15    11    14   1
    16    12    13  ar
    17    12    26   1
    18    14    15   2
    19    14    16   1
    20    16    17  ar
    21    16    21  ar
    22    17    18  ar
    23    17    24   1
    24    18    19  ar
    25    18    25   1
    26    19    20  ar
    27    20    21  ar
    28    21    22   1
    29    22    23   1
    30    27    28   1
    31    27    29   2
    32    27    30   2
    33     2    31   1
    34     2    32   1
    35     3    33   1
    36     3    34   1
    37     4    35   1
    38     5    36   1
    39     5    37   1
    40     6    38   1
    41     6    39   1
    42     7    40   1
    43    10    41   1
    44    19    42   1
    45    20    43   1
    46    23    44   1
    47    23    45   1
    48    23    46   1
    49    26    47   1
    50    26    48   1
    51    28    49   1
    52    28    50   1
    53    28    51   1
@<TRIPOS>SUBSTRUCTURE
     1  LIA      2

