@<TRIPOS>MOLECULE
2fvd_ligand_031
    51    53
SMALL
GAST_HUCK
****
This file was generated by PARSER (from files_GN.cpp)

@<TRIPOS>ATOM
      1 N1         -5.6401   24.2137   15.7406 N.am        1 LIA      -0.2385
      2 C2         -4.6803   23.7066   14.7918 C.3         1 LIA       0.0314
      3 C3         -4.5225   24.6712   13.5910 C.3         1 LIA      -0.0122
      4 C4         -5.8924   25.0158   12.9403 C.3         1 LIA       0.0456
      5 C5         -6.8606   25.5478   14.0320 C.3         1 LIA      -0.0122
      6 C6         -6.9432   24.5985   15.2589 C.3         1 LIA       0.0314
      7 N7         -5.9176   25.9184   11.8189 N.pl3       1 LIA      -0.2866
      8 C8         -4.9192   26.5780   11.1857 C.ar        1 LIA       0.1789
      9 N9         -3.6110   26.5325   11.5524 N.ar        1 LIA      -0.2656
     10 C10        -2.6495   27.2330   10.9068 C.ar        1 LIA       0.0186
     11 C11        -2.9880   28.0650    9.8193 C.ar        1 LIA       0.0852
     12 C12        -4.3402   28.0520    9.4053 C.ar        1 LIA       0.1302
     13 N13        -5.2550   27.3336   10.1063 N.ar        1 LIA      -0.2356
     14 C14        -2.0131   28.8294    9.2059 C.2         1 LIA       0.1492
     15 O15        -1.2231   28.1562    8.5531 O.2         1 LIA      -0.3856
     16 C16        -1.8432   30.2344    9.3486 C.ar        1 LIA       0.0920
     17 C17        -0.6547   30.8718    8.8678 C.ar        1 LIA       0.1766
     18 C18        -0.4829   32.2682    8.9315 C.ar        1 LIA       0.1591
     19 C19        -1.4821   33.0724    9.4945 C.ar        1 LIA      -0.0338
     20 C20        -2.6407   32.4815   10.0108 C.ar        1 LIA      -0.0322
     21 C21        -2.8278   31.0869    9.9575 C.ar        1 LIA       0.1052
     22 O22        -4.0525   30.6308   10.3863 O.3         1 LIA      -0.3192
     23 C23        -4.3558   30.8097   11.7792 C.3         1 LIA       0.0603
     24 F24         0.3412   30.1980    8.3510 F           1 LIA      -0.1811
     25 F25         0.5952   32.8459    8.4684 F           1 LIA      -0.1924
     26 N26        -4.7709   28.7646    8.3491 N.pl3       1 LIA      -0.3135
     27 S27        -5.4699   23.8147   17.3769 S.o2        1 LIA       0.0385
     28 C28        -6.3394   22.3163   17.8672 C.3         1 LIA       0.0734
     29 O29        -5.9410   25.0389   18.2730 O.2         1 LIA      -0.1556
     30 O30        -3.9335   23.6457   17.7503 O.2         1 LIA      -0.1556
     31 H1         -5.0103   22.7242   14.4396 H           1 LIA       0.0479
     32 H2         -3.6907   23.5757   15.2397 H           1 LIA       0.0479
     33 H3         -3.8649   24.2091   12.8510 H           1 LIA       0.0304
     34 H4         -4.0515   25.5831   13.9609 H           1 LIA       0.0304
     35 H5         -6.3114   24.0840   12.5535 H           1 LIA       0.0563
     36 H6         -7.8650   25.6622   13.6116 H           1 LIA       0.0304
     37 H7         -6.5188   26.5309   14.3697 H           1 LIA       0.0304
     38 H8         -7.5196   25.1118   16.0352 H           1 LIA       0.0479
     39 H9         -7.4983   23.6974   14.9798 H           1 LIA       0.0479
     40 H10        -6.8002   26.0726   11.4443 H           1 LIA       0.1881
     41 H11        -1.6842   27.1534   11.2372 H           1 LIA       0.0904
     42 H12        -1.3802   34.0859    9.5238 H           1 LIA       0.0605
     43 H13        -3.3583   33.0850   10.4121 H           1 LIA       0.0512
     44 H14        -5.2846   30.2815   11.9826 H           1 LIA       0.0579
     45 H15        -4.4993   31.8606   12.0409 H           1 LIA       0.0579
     46 H16        -3.5749   30.3849   12.4077 H           1 LIA       0.0579
     47 H17        -5.7082   28.7586    8.1068 H           1 LIA       0.1831
     48 H18        -4.1498   29.3126    7.8444 H           1 LIA       0.1831
     49 H19        -6.1915   22.1398   18.9333 H           1 LIA       0.0482
     50 H20        -5.9480   21.4698   17.3023 H           1 LIA       0.0482
     51 H21        -7.4050   22.4269   17.6628 H           1 LIA       0.0482
@<TRIPOS>BOND
     1     1     2   1
     2     1     6   1
     3     1    27  am
     4     2     3   1
     5     3     4   1
     6     4     5   1
     7     4     7   1
     8     5     6   1
     9     7     8   1
    10     8     9  ar
    11     8    13  ar
    12     9    10  ar
    13    10    11  ar
    14    11    12  ar
    15    11    14   1
    16    12    13  ar
    17    12    26   1
    18    14    15   2
    19    14    16   1
    20    16    17  ar
    21    16    21  ar
    22    17    18  ar
    23    17    24   1
    24    18    19  ar
    25    18    25   1
    26    19    20  ar
    27    20    21  ar
    28    21    22   1
    29    22    23   1
    30    27    28   1
    31    27    29   2
    32    27    30   2
    33     2    31   1
    34     2    32   1
    35     3    33   1
    36     3    34   1
    37     4    35   1
    38     5    36   1
    39     5    37   1
    40     6    38   1
    41     6    39   1
    42     7    40   1
    43    10    41   1
    44    19    42   1
    45    20    43   1
    46    23    44   1
    47    23    45   1
    48    23    46   1
    49    26    47   1
    50    26    48   1
    51    28    49   1
    52    28    50   1
    53    28    51   1
@<TRIPOS>SUBSTRUCTURE
     1  LIA      2

