@<TRIPOS>MOLECULE
2fvd_ligand_059
    51    53
SMALL
GAST_HUCK
****
This file was generated by PARSER (from files_GN.cpp)

@<TRIPOS>ATOM
      1 N1          1.3268   23.6259    9.3960 N.am        1 LIA      -0.2385
      2 C2          0.0813   22.9632    9.0950 C.3         1 LIA       0.0314
      3 C3         -1.1526   23.8783    9.3119 C.3         1 LIA      -0.0122
      4 C4         -1.1107   24.5265   10.7200 C.3         1 LIA       0.0456
      5 C5          0.2251   25.2949   10.8980 C.3         1 LIA      -0.0122
      6 C6          1.4485   24.3772   10.6239 C.3         1 LIA       0.0314
      7 N7         -2.2210   25.4181   10.8811 N.pl3       1 LIA      -0.2866
      8 C8         -3.1882   25.3332   11.8244 C.ar        1 LIA       0.1789
      9 N9         -4.1539   26.2822   11.8507 N.ar        1 LIA      -0.2656
     10 C10        -5.1588   26.2575   12.7569 C.ar        1 LIA       0.0186
     11 C11        -5.2380   25.2448   13.7481 C.ar        1 LIA       0.0852
     12 C12        -4.2266   24.2485   13.6737 C.ar        1 LIA       0.1302
     13 N13        -3.2529   24.3295   12.7349 N.ar        1 LIA      -0.2356
     14 C14        -6.2838   25.2479   14.6939 C.2         1 LIA       0.1492
     15 O15        -7.2181   26.0183   14.4961 O.2         1 LIA      -0.3856
     16 C16        -6.3200   24.5043   15.8858 C.ar        1 LIA       0.0920
     17 C17        -5.2087   24.4864   16.7780 C.ar        1 LIA       0.1766
     18 C18        -5.2273   23.6970   17.9477 C.ar        1 LIA       0.1591
     19 C19        -6.3460   22.9051   18.2468 C.ar        1 LIA      -0.0338
     20 C20        -7.4623   22.9276   17.3974 C.ar        1 LIA      -0.0322
     21 C21        -7.4760   23.7502   16.2507 C.ar        1 LIA       0.1052
     22 O22        -8.6027   23.7178   15.4662 O.3         1 LIA      -0.3192
     23 C23        -9.5676   24.7337   15.8197 C.3         1 LIA       0.0603
     24 F24        -4.1461   25.2196   16.5647 F           1 LIA      -0.1811
     25 F25        -4.2098   23.6772   18.7677 F           1 LIA      -0.1924
     26 N26        -4.1652   23.1601   14.4587 N.pl3       1 LIA      -0.3135
     27 S27         2.7279   23.0021    8.6719 S.o2        1 LIA       0.0385
     28 C28         4.3094   23.5071    9.3820 C.3         1 LIA       0.0734
     29 O29         2.7494   23.4050    7.1351 O.2         1 LIA      -0.1556
     30 O30         2.7228   21.4134    8.7641 O.2         1 LIA      -0.1556
     31 H1         -0.0099   22.0826    9.7356 H           1 LIA       0.0479
     32 H2          0.0571   22.6262    8.0560 H           1 LIA       0.0479
     33 H3         -2.0660   23.2848    9.2038 H           1 LIA       0.0304
     34 H4         -1.1618   24.6566    8.5434 H           1 LIA       0.0304
     35 H5         -1.1443   23.7293   11.4741 H           1 LIA       0.0563
     36 H6          0.2900   25.6909   11.9158 H           1 LIA       0.0304
     37 H7          0.2543   26.1428   10.2052 H           1 LIA       0.0304
     38 H8          2.3333   25.0184   10.6006 H           1 LIA       0.0479
     39 H9          1.5634   23.6759   11.4534 H           1 LIA       0.0479
     40 H10        -2.3030   26.1387   10.2355 H           1 LIA       0.1881
     41 H11        -5.8447   27.0141   12.7165 H           1 LIA       0.0904
     42 H12        -6.3619   22.3156   19.0831 H           1 LIA       0.0605
     43 H13        -8.2740   22.3457   17.6230 H           1 LIA       0.0512
     44 H14       -10.3842   24.6910   15.0981 H           1 LIA       0.0579
     45 H15        -9.1347   25.7401   15.7834 H           1 LIA       0.0579
     46 H16        -9.9810   24.5589   16.8178 H           1 LIA       0.0579
     47 H17        -3.4514   22.5155   14.3332 H           1 LIA       0.1831
     48 H18        -4.8209   23.0114   15.1524 H           1 LIA       0.1831
     49 H19         5.1180   22.9996    8.8620 H           1 LIA       0.0482
     50 H20         4.3403   23.2430   10.4386 H           1 LIA       0.0482
     51 H21         4.4351   24.5839    9.2734 H           1 LIA       0.0482
@<TRIPOS>BOND
     1     1     2   1
     2     1     6   1
     3     1    27  am
     4     2     3   1
     5     3     4   1
     6     4     5   1
     7     4     7   1
     8     5     6   1
     9     7     8   1
    10     8     9  ar
    11     8    13  ar
    12     9    10  ar
    13    10    11  ar
    14    11    12  ar
    15    11    14   1
    16    12    13  ar
    17    12    26   1
    18    14    15   2
    19    14    16   1
    20    16    17  ar
    21    16    21  ar
    22    17    18  ar
    23    17    24   1
    24    18    19  ar
    25    18    25   1
    26    19    20  ar
    27    20    21  ar
    28    21    22   1
    29    22    23   1
    30    27    28   1
    31    27    29   2
    32    27    30   2
    33     2    31   1
    34     2    32   1
    35     3    33   1
    36     3    34   1
    37     4    35   1
    38     5    36   1
    39     5    37   1
    40     6    38   1
    41     6    39   1
    42     7    40   1
    43    10    41   1
    44    19    42   1
    45    20    43   1
    46    23    44   1
    47    23    45   1
    48    23    46   1
    49    26    47   1
    50    26    48   1
    51    28    49   1
    52    28    50   1
    53    28    51   1
@<TRIPOS>SUBSTRUCTURE
     1  LIA      2

