@<TRIPOS>MOLECULE
2fvd_ligand_068
    51    53
SMALL
GAST_HUCK
****
This file was generated by PARSER (from files_GN.cpp)

@<TRIPOS>ATOM
      1 N1          4.5686   26.0585    7.5401 N.am        1 LIA      -0.2385
      2 C2          3.8099   24.8302    7.6086 C.3         1 LIA       0.0314
      3 C3          2.6246   24.9315    8.6052 C.3         1 LIA      -0.0122
      4 C4          3.0789   25.4929    9.9818 C.3         1 LIA       0.0456
      5 C5          3.8883   26.8098    9.7997 C.3         1 LIA      -0.0122
      6 C6          5.0382   26.6429    8.7725 C.3         1 LIA       0.0314
      7 N7          2.0081   25.6243   10.9357 N.pl3       1 LIA      -0.2866
      8 C8          0.9662   26.4866   10.8838 C.ar        1 LIA       0.1789
      9 N9          0.7296   27.2927    9.8256 N.ar        1 LIA      -0.2656
     10 C10        -0.2661   28.2047    9.8202 C.ar        1 LIA       0.0186
     11 C11        -1.0932   28.4057   10.9536 C.ar        1 LIA       0.0852
     12 C12        -0.8835   27.4698   12.0102 C.ar        1 LIA       0.1302
     13 N13         0.1311   26.5677   11.9468 N.ar        1 LIA      -0.2356
     14 C14        -2.0340   29.4559   11.0170 C.2         1 LIA       0.1492
     15 O15        -2.4942   29.8055   12.0950 O.2         1 LIA      -0.3856
     16 C16        -2.5187   30.1482    9.9140 C.ar        1 LIA       0.0920
     17 C17        -1.6904   31.0261    9.1679 C.ar        1 LIA       0.1766
     18 C18        -2.1739   31.6264    7.9863 C.ar        1 LIA       0.1591
     19 C19        -3.4933   31.3856    7.5652 C.ar        1 LIA      -0.0338
     20 C20        -4.3475   30.5899    8.3441 C.ar        1 LIA      -0.0322
     21 C21        -3.8740   29.9743    9.5228 C.ar        1 LIA       0.1052
     22 O22        -4.7620   29.2930   10.3141 O.3         1 LIA      -0.3192
     23 C23        -4.9819   27.9271    9.9326 C.3         1 LIA       0.0603
     24 F24        -0.4706   31.3021    9.5500 F           1 LIA      -0.1811
     25 F25        -1.4048   32.4125    7.2775 F           1 LIA      -0.1924
     26 N26        -1.6663   27.3808   13.0981 N.pl3       1 LIA      -0.3135
     27 S27         5.3985   26.4573    6.1177 S.o2        1 LIA       0.0385
     28 C28         5.1367   28.1668    5.6011 C.3         1 LIA       0.0734
     29 O29         4.9456   25.5535    4.8891 O.2         1 LIA      -0.1556
     30 O30         6.9543   26.1819    6.2957 O.2         1 LIA      -0.1556
     31 H1          4.4813   24.0236    7.9167 H           1 LIA       0.0479
     32 H2          3.3923   24.5575    6.6375 H           1 LIA       0.0479
     33 H3          2.1788   23.9418    8.7422 H           1 LIA       0.0304
     34 H4          1.8633   25.5835    8.1723 H           1 LIA       0.0304
     35 H5          3.7556   24.7501   10.4147 H           1 LIA       0.0563
     36 H6          4.2942   27.1258   10.7619 H           1 LIA       0.0304
     37 H7          3.2433   27.6124    9.4365 H           1 LIA       0.0304
     38 H8          5.4763   27.6320    8.6107 H           1 LIA       0.0479
     39 H9          5.8187   26.0046    9.1939 H           1 LIA       0.0479
     40 H10         2.0766   25.0819   11.7351 H           1 LIA       0.1881
     41 H11        -0.3628   28.7569    8.9665 H           1 LIA       0.0904
     42 H12        -3.8479   31.8243    6.7095 H           1 LIA       0.0605
     43 H13        -5.3214   30.4695    8.0598 H           1 LIA       0.0512
     44 H14        -5.6373   27.4684   10.6730 H           1 LIA       0.0579
     45 H15        -4.0444   27.3661    9.9093 H           1 LIA       0.0579
     46 H16        -5.4727   27.8660    8.9580 H           1 LIA       0.0579
     47 H17        -1.4697   26.7254   13.7837 H           1 LIA       0.1831
     48 H18        -2.4491   27.9428   13.1870 H           1 LIA       0.1831
     49 H19         5.6747   28.3557    4.6718 H           1 LIA       0.0482
     50 H20         5.5056   28.8404    6.3734 H           1 LIA       0.0482
     51 H21         4.0731   28.3446    5.4443 H           1 LIA       0.0482
@<TRIPOS>BOND
     1     1     2   1
     2     1     6   1
     3     1    27  am
     4     2     3   1
     5     3     4   1
     6     4     5   1
     7     4     7   1
     8     5     6   1
     9     7     8   1
    10     8     9  ar
    11     8    13  ar
    12     9    10  ar
    13    10    11  ar
    14    11    12  ar
    15    11    14   1
    16    12    13  ar
    17    12    26   1
    18    14    15   2
    19    14    16   1
    20    16    17  ar
    21    16    21  ar
    22    17    18  ar
    23    17    24   1
    24    18    19  ar
    25    18    25   1
    26    19    20  ar
    27    20    21  ar
    28    21    22   1
    29    22    23   1
    30    27    28   1
    31    27    29   2
    32    27    30   2
    33     2    31   1
    34     2    32   1
    35     3    33   1
    36     3    34   1
    37     4    35   1
    38     5    36   1
    39     5    37   1
    40     6    38   1
    41     6    39   1
    42     7    40   1
    43    10    41   1
    44    19    42   1
    45    20    43   1
    46    23    44   1
    47    23    45   1
    48    23    46   1
    49    26    47   1
    50    26    48   1
    51    28    49   1
    52    28    50   1
    53    28    51   1
@<TRIPOS>SUBSTRUCTURE
     1  LIA      2

