@<TRIPOS>MOLECULE
2fvd_ligand_006
    51    53
SMALL
GAST_HUCK
****
This file was generated by PARSER (from files_GN.cpp)

@<TRIPOS>ATOM
      1 N1          7.9264   19.6340   12.2927 N.am        1 LIA      -0.2385
      2 C2          8.8320   19.8114   11.1849 C.3         1 LIA       0.0314
      3 C3          8.9515   21.2914   10.7432 C.3         1 LIA      -0.0122
      4 C4          7.5502   21.9273   10.5500 C.3         1 LIA       0.0456
      5 C5          6.7286   21.7758   11.8548 C.3         1 LIA      -0.0122
      6 C6          6.6359   20.2845   12.2778 C.3         1 LIA       0.0314
      7 N7          7.6947   23.3089   10.2072 N.pl3       1 LIA      -0.2866
      8 C8          7.7314   23.8106    8.9515 C.ar        1 LIA       0.1789
      9 N9          7.9471   25.1414    8.7935 N.ar        1 LIA      -0.2656
     10 C10         8.0157   25.7095    7.5642 C.ar        1 LIA       0.0186
     11 C11         7.8067   24.9321    6.4013 C.ar        1 LIA       0.0852
     12 C12         7.6143   23.5410    6.5884 C.ar        1 LIA       0.1302
     13 N13         7.5842   23.0311    7.8496 N.ar        1 LIA      -0.2356
     14 C14         7.7955   25.5442    5.1612 C.2         1 LIA       0.1492
     15 O15         8.9194   25.7961    4.7395 O.2         1 LIA      -0.3856
     16 C16         6.6348   25.9842    4.4778 C.ar        1 LIA       0.0920
     17 C17         6.7523   26.7631    3.2835 C.ar        1 LIA       0.1766
     18 C18         5.6149   27.1722    2.5558 C.ar        1 LIA       0.1591
     19 C19         4.3331   26.8124    2.9919 C.ar        1 LIA      -0.0338
     20 C20         4.1840   26.0663    4.1661 C.ar        1 LIA      -0.0322
     21 C21         5.3076   25.6752    4.9235 C.ar        1 LIA       0.1052
     22 O22         5.0467   24.9043    6.0251 O.3         1 LIA      -0.3192
     23 C23         4.5829   25.6295    7.1832 C.3         1 LIA       0.0603
     24 F24         7.9132   27.1400    2.8042 F           1 LIA      -0.1811
     25 F25         5.7296   27.8785    1.4592 F           1 LIA      -0.1924
     26 N26         7.4554   22.6832    5.5633 N.pl3       1 LIA      -0.3135
     27 S27         8.1456   18.2704   13.2804 S.o2        1 LIA       0.0385
     28 C28         6.6534   17.3465   13.6896 C.3         1 LIA       0.0734
     29 O29         8.8943   18.6721   14.6270 O.2         1 LIA      -0.1556
     30 O30         9.0961   17.2240   12.5554 O.2         1 LIA      -0.1556
     31 H1          8.4828   19.2086   10.3418 H           1 LIA       0.0479
     32 H2          9.8404   19.4781   11.4421 H           1 LIA       0.0479
     33 H3          9.5187   21.3482    9.8100 H           1 LIA       0.0304
     34 H4          9.5043   21.8443   11.5106 H           1 LIA       0.0304
     35 H5          7.0206   21.3905    9.7548 H           1 LIA       0.0563
     36 H6          5.7236   22.1794   11.7072 H           1 LIA       0.0304
     37 H7          7.2075   22.3418   12.6594 H           1 LIA       0.0304
     38 H8          6.1663   20.2506   13.2629 H           1 LIA       0.0479
     39 H9          5.9789   19.7529   11.5794 H           1 LIA       0.0479
     40 H10         7.8154   23.9353   10.9356 H           1 LIA       0.1881
     41 H11         8.1732   26.7158    7.5041 H           1 LIA       0.0904
     42 H12         3.5074   27.0866    2.4527 H           1 LIA       0.0605
     43 H13         3.2423   25.8052    4.4695 H           1 LIA       0.0512
     44 H14         4.5280   24.9260    8.0152 H           1 LIA       0.0579
     45 H15         3.5837   26.0406    7.0198 H           1 LIA       0.0579
     46 H16         5.2665   26.4368    7.4580 H           1 LIA       0.0579
     47 H17         7.3366   21.7343    5.7294 H           1 LIA       0.1831
     48 H18         7.4520   23.0144    4.6509 H           1 LIA       0.1831
     49 H19         6.9179   16.4611   14.2700 H           1 LIA       0.0482
     50 H20         6.1476   17.0372   12.7741 H           1 LIA       0.0482
     51 H21         5.9874   17.9735   14.2800 H           1 LIA       0.0482
@<TRIPOS>BOND
     1     1     2   1
     2     1     6   1
     3     1    27  am
     4     2     3   1
     5     3     4   1
     6     4     5   1
     7     4     7   1
     8     5     6   1
     9     7     8   1
    10     8     9  ar
    11     8    13  ar
    12     9    10  ar
    13    10    11  ar
    14    11    12  ar
    15    11    14   1
    16    12    13  ar
    17    12    26   1
    18    14    15   2
    19    14    16   1
    20    16    17  ar
    21    16    21  ar
    22    17    18  ar
    23    17    24   1
    24    18    19  ar
    25    18    25   1
    26    19    20  ar
    27    20    21  ar
    28    21    22   1
    29    22    23   1
    30    27    28   1
    31    27    29   2
    32    27    30   2
    33     2    31   1
    34     2    32   1
    35     3    33   1
    36     3    34   1
    37     4    35   1
    38     5    36   1
    39     5    37   1
    40     6    38   1
    41     6    39   1
    42     7    40   1
    43    10    41   1
    44    19    42   1
    45    20    43   1
    46    23    44   1
    47    23    45   1
    48    23    46   1
    49    26    47   1
    50    26    48   1
    51    28    49   1
    52    28    50   1
    53    28    51   1
@<TRIPOS>SUBSTRUCTURE
     1  LIA      2

