@<TRIPOS>MOLECULE
2fvd_ligand_037
    51    53
SMALL
GAST_HUCK
****
This file was generated by PARSER (from files_GN.cpp)

@<TRIPOS>ATOM
      1 N1         -0.3976   30.6866    9.4236 N.am        1 LIA      -0.2385
      2 C2          0.5010   29.6498    8.9816 C.3         1 LIA       0.0314
      3 C3          0.3803   28.3580    9.8289 C.3         1 LIA      -0.0122
      4 C4          0.4347   28.6619   11.3542 C.3         1 LIA       0.0456
      5 C5         -0.6039   29.7589   11.7254 C.3         1 LIA      -0.0122
      6 C6         -0.4566   31.0154   10.8275 C.3         1 LIA       0.0314
      7 N7          0.3405   27.4648   12.1444 N.pl3       1 LIA      -0.2866
      8 C8         -0.7162   26.6246   12.2416 C.ar        1 LIA       0.1789
      9 N9         -0.5781   25.4664   12.9378 N.ar        1 LIA      -0.2656
     10 C10        -1.5999   24.5782   13.0563 C.ar        1 LIA       0.0186
     11 C11        -2.8624   24.8576   12.4902 C.ar        1 LIA       0.0852
     12 C12        -2.9752   26.0547   11.7449 C.ar        1 LIA       0.1302
     13 N13        -1.9093   26.8802   11.6481 N.ar        1 LIA      -0.2356
     14 C14        -3.9109   23.9765   12.6544 C.2         1 LIA       0.1492
     15 O15        -4.0285   23.1250   11.7816 O.2         1 LIA      -0.3856
     16 C16        -4.9850   24.2877   13.4900 C.ar        1 LIA       0.0920
     17 C17        -6.3060   24.4239   12.9812 C.ar        1 LIA       0.1766
     18 C18        -7.3876   24.7079   13.8400 C.ar        1 LIA       0.1591
     19 C19        -7.1717   24.8335   15.2223 C.ar        1 LIA      -0.0338
     20 C20        -5.8768   24.6950   15.7433 C.ar        1 LIA      -0.0322
     21 C21        -4.7778   24.4497   14.8922 C.ar        1 LIA       0.1052
     22 O22        -3.5396   24.2322   15.4550 O.3         1 LIA      -0.3192
     23 C23        -2.8409   25.4113   15.8994 C.3         1 LIA       0.0603
     24 F24        -6.5603   24.3065   11.6989 F           1 LIA      -0.1811
     25 F25        -8.5995   24.8471   13.3695 F           1 LIA      -0.1924
     26 N26        -4.0910   26.4212   11.0918 N.pl3       1 LIA      -0.3135
     27 S27        -0.9550   31.8127    8.2820 S.o2        1 LIA       0.0385
     28 C28         0.1777   32.1852    6.9254 C.3         1 LIA       0.0734
     29 O29        -1.2452   33.2211    8.9656 O.2         1 LIA      -0.1556
     30 O30        -2.3493   31.3217    7.6975 O.2         1 LIA      -0.1556
     31 H1          1.5274   30.0181    9.0394 H           1 LIA       0.0479
     32 H2          0.3021   29.3724    7.9436 H           1 LIA       0.0479
     33 H3          1.1935   27.6730    9.5648 H           1 LIA       0.0304
     34 H4         -0.5621   27.8645    9.5697 H           1 LIA       0.0304
     35 H5          1.4254   29.0773   11.5650 H           1 LIA       0.0563
     36 H6         -0.4869   30.0388   12.7765 H           1 LIA       0.0304
     37 H7         -1.6207   29.3854   11.5921 H           1 LIA       0.0304
     38 H8         -1.3073   31.6698   11.0503 H           1 LIA       0.0479
     39 H9          0.4562   31.5532   11.0941 H           1 LIA       0.0479
     40 H10         1.1419   27.2112   12.6308 H           1 LIA       0.1881
     41 H11        -1.4406   23.7096   13.5759 H           1 LIA       0.0904
     42 H12        -7.9540   25.0193   15.8519 H           1 LIA       0.0605
     43 H13        -5.7376   24.7613   16.7539 H           1 LIA       0.0512
     44 H14        -1.8607   25.1063   16.2691 H           1 LIA       0.0579
     45 H15        -3.3703   25.9037   16.7172 H           1 LIA       0.0579
     46 H16        -2.6873   26.1194   15.0821 H           1 LIA       0.0579
     47 H17        -4.1027   27.2465   10.5807 H           1 LIA       0.1831
     48 H18        -4.8732   25.8475   11.0897 H           1 LIA       0.1831
     49 H19        -0.3130   32.8739    6.2389 H           1 LIA       0.0482
     50 H20         0.4400   31.2754    6.3866 H           1 LIA       0.0482
     51 H21         1.0852   32.6461    7.3144 H           1 LIA       0.0482
@<TRIPOS>BOND
     1     1     2   1
     2     1     6   1
     3     1    27  am
     4     2     3   1
     5     3     4   1
     6     4     5   1
     7     4     7   1
     8     5     6   1
     9     7     8   1
    10     8     9  ar
    11     8    13  ar
    12     9    10  ar
    13    10    11  ar
    14    11    12  ar
    15    11    14   1
    16    12    13  ar
    17    12    26   1
    18    14    15   2
    19    14    16   1
    20    16    17  ar
    21    16    21  ar
    22    17    18  ar
    23    17    24   1
    24    18    19  ar
    25    18    25   1
    26    19    20  ar
    27    20    21  ar
    28    21    22   1
    29    22    23   1
    30    27    28   1
    31    27    29   2
    32    27    30   2
    33     2    31   1
    34     2    32   1
    35     3    33   1
    36     3    34   1
    37     4    35   1
    38     5    36   1
    39     5    37   1
    40     6    38   1
    41     6    39   1
    42     7    40   1
    43    10    41   1
    44    19    42   1
    45    20    43   1
    46    23    44   1
    47    23    45   1
    48    23    46   1
    49    26    47   1
    50    26    48   1
    51    28    49   1
    52    28    50   1
    53    28    51   1
@<TRIPOS>SUBSTRUCTURE
     1  LIA      2

