@<TRIPOS>MOLECULE
2fvd_ligand_029
    51    53
SMALL
GAST_HUCK
****
This file was generated by PARSER (from files_GN.cpp)

@<TRIPOS>ATOM
      1 N1         -1.1651   23.5202   10.8790 N.am        1 LIA      -0.2385
      2 C2         -2.4937   23.4481   11.4448 C.3         1 LIA       0.0314
      3 C3         -2.4823   23.9176   12.9300 C.3         1 LIA      -0.0122
      4 C4         -1.7882   25.3092   13.1014 C.3         1 LIA       0.0456
      5 C5         -0.3848   25.2485   12.4033 C.3         1 LIA      -0.0122
      6 C6         -0.5063   24.7970   10.9247 C.3         1 LIA       0.0314
      7 N7         -2.7026   26.3444   12.6768 N.pl3       1 LIA      -0.2866
      8 C8         -2.4528   27.6528   12.4402 C.ar        1 LIA       0.1789
      9 N9         -1.2023   28.1785   12.4250 N.ar        1 LIA      -0.2656
     10 C10        -0.9437   29.4525   12.0645 C.ar        1 LIA       0.0186
     11 C11        -2.0082   30.2914   11.6683 C.ar        1 LIA       0.0852
     12 C12        -3.3197   29.7613   11.7666 C.ar        1 LIA       0.1302
     13 N13        -3.4950   28.4608   12.1177 N.ar        1 LIA      -0.2356
     14 C14        -1.7292   31.4890   11.0296 C.2         1 LIA       0.1492
     15 O15        -2.0583   32.5150   11.6102 O.2         1 LIA      -0.3856
     16 C16        -1.0504   31.5371    9.7966 C.ar        1 LIA       0.0920
     17 C17        -0.0748   32.5440    9.5433 C.ar        1 LIA       0.1766
     18 C18         0.6136   32.5931    8.3127 C.ar        1 LIA       0.1591
     19 C19         0.3684   31.6174    7.3327 C.ar        1 LIA      -0.0338
     20 C20        -0.5625   30.5980    7.5725 C.ar        1 LIA      -0.0322
     21 C21        -1.2975   30.5700    8.7730 C.ar        1 LIA       0.1052
     22 O22        -2.2110   29.5550    8.9195 O.3         1 LIA      -0.3192
     23 C23        -3.4688   29.7866    8.2595 C.3         1 LIA       0.0603
     24 F24         0.2690   33.4026   10.4691 F           1 LIA      -0.1811
     25 F25         1.5121   33.5129    8.0774 F           1 LIA      -0.1924
     26 N26        -4.4154   30.4687   11.4447 N.pl3       1 LIA      -0.3135
     27 S27        -0.2221   22.1188   10.7252 S.o2        1 LIA       0.0385
     28 C28         0.7201   21.6411   12.1865 C.3         1 LIA       0.0734
     29 O29         0.8008   22.3259    9.5259 O.2         1 LIA      -0.1556
     30 O30        -1.1083   20.8979   10.2194 O.2         1 LIA      -0.1556
     31 H1         -2.9161   22.4419   11.3811 H           1 LIA       0.0479
     32 H2         -3.1533   24.1007   10.8684 H           1 LIA       0.0479
     33 H3         -1.9474   23.1726   13.5257 H           1 LIA       0.0304
     34 H4         -3.5095   23.9447   13.3071 H           1 LIA       0.0304
     35 H5         -1.6198   25.4734   14.1701 H           1 LIA       0.0563
     36 H6          0.2457   24.5365   12.9434 H           1 LIA       0.0304
     37 H7          0.1510   26.1915   12.4469 H           1 LIA       0.0304
     38 H8         -1.0901   25.5295   10.3581 H           1 LIA       0.0479
     39 H9          0.4918   24.7701   10.4765 H           1 LIA       0.0479
     40 H10        -3.6301   26.0732   12.5759 H           1 LIA       0.1881
     41 H11         0.0331   29.7568   12.0036 H           1 LIA       0.0904
     42 H12         0.8793   31.6353    6.4482 H           1 LIA       0.0605
     43 H13        -0.7169   29.8780    6.8620 H           1 LIA       0.0512
     44 H14        -4.1457   28.9764    8.5359 H           1 LIA       0.0579
     45 H15        -3.3485   29.7747    7.1738 H           1 LIA       0.0579
     46 H16        -3.9224   30.7322    8.5695 H           1 LIA       0.0579
     47 H17        -5.2888   30.0521   11.4767 H           1 LIA       0.1831
     48 H18        -4.3317   31.3922   11.1607 H           1 LIA       0.1831
     49 H19         1.2324   20.6983   11.9987 H           1 LIA       0.0482
     50 H20         0.0503   21.5230   13.0353 H           1 LIA       0.0482
     51 H21         1.4593   22.4067   12.4165 H           1 LIA       0.0482
@<TRIPOS>BOND
     1     1     2   1
     2     1     6   1
     3     1    27  am
     4     2     3   1
     5     3     4   1
     6     4     5   1
     7     4     7   1
     8     5     6   1
     9     7     8   1
    10     8     9  ar
    11     8    13  ar
    12     9    10  ar
    13    10    11  ar
    14    11    12  ar
    15    11    14   1
    16    12    13  ar
    17    12    26   1
    18    14    15   2
    19    14    16   1
    20    16    17  ar
    21    16    21  ar
    22    17    18  ar
    23    17    24   1
    24    18    19  ar
    25    18    25   1
    26    19    20  ar
    27    20    21  ar
    28    21    22   1
    29    22    23   1
    30    27    28   1
    31    27    29   2
    32    27    30   2
    33     2    31   1
    34     2    32   1
    35     3    33   1
    36     3    34   1
    37     4    35   1
    38     5    36   1
    39     5    37   1
    40     6    38   1
    41     6    39   1
    42     7    40   1
    43    10    41   1
    44    19    42   1
    45    20    43   1
    46    23    44   1
    47    23    45   1
    48    23    46   1
    49    26    47   1
    50    26    48   1
    51    28    49   1
    52    28    50   1
    53    28    51   1
@<TRIPOS>SUBSTRUCTURE
     1  LIA      2

