@<TRIPOS>MOLECULE
2fvd_ligand_055
    51    53
SMALL
GAST_HUCK
****
This file was generated by PARSER (from files_GN.cpp)

@<TRIPOS>ATOM
      1 N1          4.8042   19.2606   11.9851 N.am        1 LIA      -0.2385
      2 C2          5.7549   20.2876   12.3384 C.3         1 LIA       0.0314
      3 C3          5.0908   21.6827   12.4553 C.3         1 LIA      -0.0122
      4 C4          4.2751   22.0095   11.1775 C.3         1 LIA       0.0456
      5 C5          3.2645   20.8629   10.8708 C.3         1 LIA      -0.0122
      6 C6          3.9591   19.4750   10.8319 C.3         1 LIA       0.0314
      7 N7          3.7039   23.3281   11.2029 N.pl3       1 LIA      -0.2866
      8 C8          2.4747   23.6963   11.6148 C.ar        1 LIA       0.1789
      9 N9          1.5663   22.8333   12.1249 N.ar        1 LIA      -0.2656
     10 C10         0.3210   23.2286   12.4846 C.ar        1 LIA       0.0186
     11 C11        -0.1105   24.5710   12.3280 C.ar        1 LIA       0.0852
     12 C12         0.8935   25.4651   11.8465 C.ar        1 LIA       0.1302
     13 N13         2.1228   25.0023   11.5055 N.ar        1 LIA      -0.2356
     14 C14        -1.4259   24.9724   12.6516 C.2         1 LIA       0.1492
     15 O15        -1.9262   25.9321   12.0751 O.2         1 LIA      -0.3856
     16 C16        -2.2743   24.3819   13.5848 C.ar        1 LIA       0.0920
     17 C17        -2.5915   25.0591   14.7965 C.ar        1 LIA       0.1766
     18 C18        -3.4137   24.4513   15.7685 C.ar        1 LIA       0.1591
     19 C19        -3.9061   23.1529   15.5497 C.ar        1 LIA      -0.0338
     20 C20        -3.6315   22.4930   14.3428 C.ar        1 LIA      -0.0322
     21 C21        -2.8792   23.1181   13.3249 C.ar        1 LIA       0.1052
     22 O22        -2.6741   22.4017   12.1723 O.3         1 LIA      -0.3192
     23 C23        -3.0744   23.0352   10.9378 C.3         1 LIA       0.0603
     24 F24        -2.1253   26.2551   15.0543 F           1 LIA      -0.1811
     25 F25        -3.7162   25.0745   16.8799 F           1 LIA      -0.1924
     26 N26         0.7457   26.7964   11.6825 N.pl3       1 LIA      -0.3135
     27 S27         5.1321   17.6609   12.4400 S.o2        1 LIA       0.0385
     28 C28         3.6729   16.6083   12.5643 C.3         1 LIA       0.0734
     29 O29         5.7543   17.6238   13.9037 O.2         1 LIA      -0.1556
     30 O30         6.1976   17.0023   11.4598 O.2         1 LIA      -0.1556
     31 H1          6.5352   20.3161   11.5735 H           1 LIA       0.0479
     32 H2          6.2401   20.0789   13.2929 H           1 LIA       0.0479
     33 H3          5.8687   22.4372   12.5985 H           1 LIA       0.0304
     34 H4          4.4394   21.6969   13.3326 H           1 LIA       0.0304
     35 H5          4.9855   22.0379   10.3469 H           1 LIA       0.0563
     36 H6          2.7701   21.0497    9.9128 H           1 LIA       0.0304
     37 H7          2.4915   20.8135   11.6411 H           1 LIA       0.0304
     38 H8          3.1675   18.7211   10.7750 H           1 LIA       0.0479
     39 H9          4.5611   19.3880    9.9221 H           1 LIA       0.0479
     40 H10         4.2890   24.0491   10.9156 H           1 LIA       0.1881
     41 H11        -0.2928   22.5004   12.8524 H           1 LIA       0.0904
     42 H12        -4.4706   22.6904   16.2712 H           1 LIA       0.0605
     43 H13        -3.9904   21.5491   14.2030 H           1 LIA       0.0512
     44 H14        -2.9354   22.3131   10.1288 H           1 LIA       0.0579
     45 H15        -2.4504   23.9064   10.7142 H           1 LIA       0.0579
     46 H16        -4.1265   23.3367   10.9306 H           1 LIA       0.0579
     47 H17         1.4921   27.3227   11.3648 H           1 LIA       0.1831
     48 H18        -0.0869   27.2374   11.8956 H           1 LIA       0.1831
     49 H19         3.9492   15.6551   13.0149 H           1 LIA       0.0482
     50 H20         3.2602   16.4272   11.5728 H           1 LIA       0.0482
     51 H21         2.9230   17.0977   13.1866 H           1 LIA       0.0482
@<TRIPOS>BOND
     1     1     2   1
     2     1     6   1
     3     1    27  am
     4     2     3   1
     5     3     4   1
     6     4     5   1
     7     4     7   1
     8     5     6   1
     9     7     8   1
    10     8     9  ar
    11     8    13  ar
    12     9    10  ar
    13    10    11  ar
    14    11    12  ar
    15    11    14   1
    16    12    13  ar
    17    12    26   1
    18    14    15   2
    19    14    16   1
    20    16    17  ar
    21    16    21  ar
    22    17    18  ar
    23    17    24   1
    24    18    19  ar
    25    18    25   1
    26    19    20  ar
    27    20    21  ar
    28    21    22   1
    29    22    23   1
    30    27    28   1
    31    27    29   2
    32    27    30   2
    33     2    31   1
    34     2    32   1
    35     3    33   1
    36     3    34   1
    37     4    35   1
    38     5    36   1
    39     5    37   1
    40     6    38   1
    41     6    39   1
    42     7    40   1
    43    10    41   1
    44    19    42   1
    45    20    43   1
    46    23    44   1
    47    23    45   1
    48    23    46   1
    49    26    47   1
    50    26    48   1
    51    28    49   1
    52    28    50   1
    53    28    51   1
@<TRIPOS>SUBSTRUCTURE
     1  LIA      2

