@<TRIPOS>MOLECULE
2fvd_ligand_007
    51    53
SMALL
GAST_HUCK
****
This file was generated by PARSER (from files_GN.cpp)

@<TRIPOS>ATOM
      1 N1          5.1279   26.5729    6.7685 N.am        1 LIA      -0.2385
      2 C2          5.6583   27.4115    7.8178 C.3         1 LIA       0.0314
      3 C3          4.6173   27.6703    8.9378 C.3         1 LIA      -0.0122
      4 C4          3.2735   28.1703    8.3404 C.3         1 LIA       0.0456
      5 C5          2.7705   27.1913    7.2427 C.3         1 LIA      -0.0122
      6 C6          3.8601   26.9218    6.1738 C.3         1 LIA       0.0314
      7 N7          2.2685   28.4591    9.3255 N.pl3       1 LIA      -0.2866
      8 C8          1.5696   27.5910   10.0903 C.ar        1 LIA       0.1789
      9 N9          0.5217   28.0902   10.7868 N.ar        1 LIA      -0.2656
     10 C10        -0.2917   27.2948   11.5240 C.ar        1 LIA       0.0186
     11 C11        -0.0689   25.9007   11.5977 C.ar        1 LIA       0.0852
     12 C12         1.0542   25.4046   10.8893 C.ar        1 LIA       0.1302
     13 N13         1.8198   26.2583   10.1554 N.ar        1 LIA      -0.2356
     14 C14        -0.9461   25.0845   12.3074 C.2         1 LIA       0.1492
     15 O15        -0.5116   24.3038   13.1425 O.2         1 LIA      -0.3856
     16 C16        -2.2663   24.9264   11.9135 C.ar        1 LIA       0.0920
     17 C17        -3.3063   25.5599   12.6422 C.ar        1 LIA       0.1766
     18 C18        -4.6554   25.3420   12.2910 C.ar        1 LIA       0.1591
     19 C19        -4.9791   24.4679   11.2388 C.ar        1 LIA      -0.0338
     20 C20        -3.9557   23.8373   10.5101 C.ar        1 LIA      -0.0322
     21 C21        -2.5990   24.0892   10.8136 C.ar        1 LIA       0.1052
     22 O22        -1.6161   23.4518   10.0931 O.3         1 LIA      -0.3192
     23 C23        -1.4544   23.9334    8.7461 C.3         1 LIA       0.0603
     24 F24        -3.0396   26.3587   13.6450 F           1 LIA      -0.1811
     25 F25        -5.6188   25.9313   12.9483 F           1 LIA      -0.1924
     26 N26         1.3932   24.1006   10.8513 N.pl3       1 LIA      -0.3135
     27 S27         6.1785   25.6224    5.8387 S.o2        1 LIA       0.0385
     28 C28         7.8305   25.3173    6.5029 C.3         1 LIA       0.0734
     29 O29         6.3688   26.2582    4.3927 O.2         1 LIA      -0.1556
     30 O30         5.5120   24.1905    5.6494 O.2         1 LIA      -0.1556
     31 H1          5.9738   28.3671    7.3871 H           1 LIA       0.0479
     32 H2          6.5287   26.9594    8.2927 H           1 LIA       0.0479
     33 H3          5.0128   28.4156    9.6301 H           1 LIA       0.0304
     34 H4          4.4625   26.7410    9.4943 H           1 LIA       0.0304
     35 H5          3.4755   29.1296    7.8468 H           1 LIA       0.0563
     36 H6          1.8772   27.5997    6.7618 H           1 LIA       0.0304
     37 H7          2.5003   26.2342    7.6932 H           1 LIA       0.0304
     38 H8          3.4870   26.1248    5.5279 H           1 LIA       0.0479
     39 H9          3.9977   27.8147    5.5546 H           1 LIA       0.0479
     40 H10         1.9958   29.3909    9.3852 H           1 LIA       0.1881
     41 H11        -1.0621   27.7316   12.0266 H           1 LIA       0.0904
     42 H12        -5.9546   24.2826   11.0046 H           1 LIA       0.0605
     43 H13        -4.2028   23.1957    9.7510 H           1 LIA       0.0512
     44 H14        -0.5869   23.4388    8.3093 H           1 LIA       0.0579
     45 H15        -1.2804   25.0114    8.7130 H           1 LIA       0.0579
     46 H16        -2.3266   23.6911    8.1337 H           1 LIA       0.0579
     47 H17         2.1645   23.8134   10.3336 H           1 LIA       0.1831
     48 H18         0.8684   23.4417   11.3343 H           1 LIA       0.1831
     49 H19         8.3515   24.6160    5.8532 H           1 LIA       0.0482
     50 H20         7.7573   24.8904    7.5029 H           1 LIA       0.0482
     51 H21         8.3911   26.2506    6.5443 H           1 LIA       0.0482
@<TRIPOS>BOND
     1     1     2   1
     2     1     6   1
     3     1    27  am
     4     2     3   1
     5     3     4   1
     6     4     5   1
     7     4     7   1
     8     5     6   1
     9     7     8   1
    10     8     9  ar
    11     8    13  ar
    12     9    10  ar
    13    10    11  ar
    14    11    12  ar
    15    11    14   1
    16    12    13  ar
    17    12    26   1
    18    14    15   2
    19    14    16   1
    20    16    17  ar
    21    16    21  ar
    22    17    18  ar
    23    17    24   1
    24    18    19  ar
    25    18    25   1
    26    19    20  ar
    27    20    21  ar
    28    21    22   1
    29    22    23   1
    30    27    28   1
    31    27    29   2
    32    27    30   2
    33     2    31   1
    34     2    32   1
    35     3    33   1
    36     3    34   1
    37     4    35   1
    38     5    36   1
    39     5    37   1
    40     6    38   1
    41     6    39   1
    42     7    40   1
    43    10    41   1
    44    19    42   1
    45    20    43   1
    46    23    44   1
    47    23    45   1
    48    23    46   1
    49    26    47   1
    50    26    48   1
    51    28    49   1
    52    28    50   1
    53    28    51   1
@<TRIPOS>SUBSTRUCTURE
     1  LIA      2

