@<TRIPOS>MOLECULE
2fvd_ligand_057
    51    53
SMALL
GAST_HUCK
****
This file was generated by PARSER (from files_GN.cpp)

@<TRIPOS>ATOM
      1 N1         -6.7656   20.0567   20.8041 N.am        1 LIA      -0.2385
      2 C2         -7.0675   21.3689   20.2868 C.3         1 LIA       0.0314
      3 C3         -5.7634   22.1909   20.1231 C.3         1 LIA      -0.0122
      4 C4         -4.6888   21.4140   19.3094 C.3         1 LIA       0.0456
      5 C5         -4.5103   19.9649   19.8373 C.3         1 LIA      -0.0122
      6 C6         -5.8678   19.2365   20.0252 C.3         1 LIA       0.0314
      7 N7         -5.0357   21.3682   17.9130 N.pl3       1 LIA      -0.2866
      8 C8         -4.7643   22.3296   17.0056 C.ar        1 LIA       0.1789
      9 N9         -5.0662   22.1281   15.6988 N.ar        1 LIA      -0.2656
     10 C10        -4.8459   23.0737   14.7703 C.ar        1 LIA       0.0186
     11 C11        -4.4038   24.3733   15.1207 C.ar        1 LIA       0.0852
     12 C12        -4.0179   24.5212   16.4845 C.ar        1 LIA       0.1302
     13 N13        -4.2143   23.5157   17.3591 N.ar        1 LIA      -0.2356
     14 C14        -4.2831   25.3883   14.1648 C.2         1 LIA       0.1492
     15 O15        -3.3132   26.1126   14.3522 O.2         1 LIA      -0.3856
     16 C16        -5.0879   25.6186   13.0059 C.ar        1 LIA       0.0920
     17 C17        -4.6659   26.5634   12.0121 C.ar        1 LIA       0.1766
     18 C18        -5.3999   26.7888   10.8326 C.ar        1 LIA       0.1591
     19 C19        -6.5536   26.0427   10.5767 C.ar        1 LIA      -0.0338
     20 C20        -7.0305   25.1506   11.5506 C.ar        1 LIA      -0.0322
     21 C21        -6.3470   24.9728   12.7746 C.ar        1 LIA       0.1052
     22 O22        -6.9121   24.0714   13.6540 O.3         1 LIA      -0.3192
     23 C23        -7.9083   24.5493   14.5554 C.3         1 LIA       0.0603
     24 F24        -3.5548   27.2597   12.1211 F           1 LIA      -0.1811
     25 F25        -4.9960   27.6565    9.9411 F           1 LIA      -0.1924
     26 N26        -3.4706   25.6271   17.0215 N.pl3       1 LIA      -0.3135
     27 S27        -6.9667   19.7672   22.4629 S.o2        1 LIA       0.0385
     28 C28        -8.6213   20.1824   23.0481 C.3         1 LIA       0.0734
     29 O29        -5.8775   20.5303   23.3357 O.2         1 LIA      -0.1556
     30 O30        -6.8133   18.2169   22.7849 O.2         1 LIA      -0.1556
     31 H1         -7.7620   21.9226   20.9210 H           1 LIA       0.0479
     32 H2         -7.5517   21.2657   19.3136 H           1 LIA       0.0479
     33 H3         -5.3649   22.4174   21.1164 H           1 LIA       0.0304
     34 H4         -5.9883   23.1424   19.6348 H           1 LIA       0.0304
     35 H5         -3.7284   21.9248   19.4446 H           1 LIA       0.0563
     36 H6         -4.0040   20.0150   20.8026 H           1 LIA       0.0304
     37 H7         -3.8744   19.3919   19.1578 H           1 LIA       0.0304
     38 H8         -6.3161   19.0476   19.0444 H           1 LIA       0.0479
     39 H9         -5.6900   18.2593   20.4787 H           1 LIA       0.0479
     40 H10        -5.5329   20.5948   17.6001 H           1 LIA       0.1881
     41 H11        -5.0547   22.8522   13.7903 H           1 LIA       0.0904
     42 H12        -7.0570   26.1587    9.6932 H           1 LIA       0.0605
     43 H13        -7.8962   24.6430   11.3655 H           1 LIA       0.0512
     44 H14        -8.1946   23.7241   15.2116 H           1 LIA       0.0579
     45 H15        -8.8051   24.8736   14.0194 H           1 LIA       0.0579
     46 H16        -7.5379   25.3682   15.1783 H           1 LIA       0.0579
     47 H17        -3.2168   25.6301   17.9625 H           1 LIA       0.1831
     48 H18        -3.3384   26.4242   16.4851 H           1 LIA       0.1831
     49 H19        -8.7267   19.8795   24.0894 H           1 LIA       0.0482
     50 H20        -9.3623   19.6614   22.4417 H           1 LIA       0.0482
     51 H21        -8.7842   21.2571   22.9728 H           1 LIA       0.0482
@<TRIPOS>BOND
     1     1     2   1
     2     1     6   1
     3     1    27  am
     4     2     3   1
     5     3     4   1
     6     4     5   1
     7     4     7   1
     8     5     6   1
     9     7     8   1
    10     8     9  ar
    11     8    13  ar
    12     9    10  ar
    13    10    11  ar
    14    11    12  ar
    15    11    14   1
    16    12    13  ar
    17    12    26   1
    18    14    15   2
    19    14    16   1
    20    16    17  ar
    21    16    21  ar
    22    17    18  ar
    23    17    24   1
    24    18    19  ar
    25    18    25   1
    26    19    20  ar
    27    20    21  ar
    28    21    22   1
    29    22    23   1
    30    27    28   1
    31    27    29   2
    32    27    30   2
    33     2    31   1
    34     2    32   1
    35     3    33   1
    36     3    34   1
    37     4    35   1
    38     5    36   1
    39     5    37   1
    40     6    38   1
    41     6    39   1
    42     7    40   1
    43    10    41   1
    44    19    42   1
    45    20    43   1
    46    23    44   1
    47    23    45   1
    48    23    46   1
    49    26    47   1
    50    26    48   1
    51    28    49   1
    52    28    50   1
    53    28    51   1
@<TRIPOS>SUBSTRUCTURE
     1  LIA      2

