@<TRIPOS>MOLECULE
2fvd_ligand_011
    51    53
SMALL
GAST_HUCK
****
This file was generated by PARSER (from files_GN.cpp)

@<TRIPOS>ATOM
      1 N1         -5.6729   24.2529   15.4863 N.am        1 LIA      -0.2385
      2 C2         -4.7732   23.6180   14.5523 C.3         1 LIA       0.0314
      3 C3         -4.6605   24.4001   13.2161 C.3         1 LIA      -0.0122
      4 C4         -6.0630   24.7663   12.6490 C.3         1 LIA       0.0456
      5 C5         -6.9240   25.4761   13.7265 C.3         1 LIA      -0.0122
      6 C6         -6.9855   24.6437   15.0338 C.3         1 LIA       0.0314
      7 N7         -6.0431   25.4917   11.4103 N.pl3       1 LIA      -0.2866
      8 C8         -5.4109   26.6475   11.1086 C.ar        1 LIA       0.1789
      9 N9         -4.6015   27.3340   11.9575 N.ar        1 LIA      -0.2656
     10 C10        -3.9320   28.4491   11.5716 C.ar        1 LIA       0.0186
     11 C11        -4.0597   28.9351   10.2524 C.ar        1 LIA       0.0852
     12 C12        -4.9294   28.2257    9.3899 C.ar        1 LIA       0.1302
     13 N13        -5.5583   27.1154    9.8445 N.ar        1 LIA      -0.2356
     14 C14        -3.3381   30.0374    9.8268 C.2         1 LIA       0.1492
     15 O15        -3.9004   31.0960   10.0828 O.2         1 LIA      -0.3856
     16 C16        -2.1588   30.0045    9.0423 C.ar        1 LIA       0.0920
     17 C17        -1.5389   28.7835    8.6343 C.ar        1 LIA       0.1766
     18 C18        -0.3926   28.7730    7.8072 C.ar        1 LIA       0.1591
     19 C19         0.1589   29.9788    7.3486 C.ar        1 LIA      -0.0338
     20 C20        -0.4280   31.1910    7.7271 C.ar        1 LIA      -0.0322
     21 C21        -1.5503   31.2174    8.5794 C.ar        1 LIA       0.1052
     22 O22        -2.0508   32.4610    8.8702 O.3         1 LIA      -0.3192
     23 C23        -1.6926   32.9405   10.1789 C.3         1 LIA       0.0603
     24 F24        -2.0021   27.6079    8.9774 F           1 LIA      -0.1811
     25 F25         0.1618   27.6480    7.4377 F           1 LIA      -0.1924
     26 N26        -5.1315   28.5723    8.1083 N.pl3       1 LIA      -0.3135
     27 S27        -5.4825   23.9188   17.1348 S.o2        1 LIA       0.0385
     28 C28        -6.3427   22.4379   17.6954 C.3         1 LIA       0.0734
     29 O29        -5.9368   25.1807   17.9924 O.2         1 LIA      -0.1556
     30 O30        -3.9379   23.7774   17.4906 O.2         1 LIA      -0.1556
     31 H1         -5.1279   22.6049   14.3518 H           1 LIA       0.0479
     32 H2         -3.7643   23.5338   14.9654 H           1 LIA       0.0479
     33 H3         -4.1151   23.7959   12.4856 H           1 LIA       0.0304
     34 H4         -4.0797   25.3048   13.4040 H           1 LIA       0.0304
     35 H5         -6.5724   23.8255   12.4144 H           1 LIA       0.0563
     36 H6         -7.9403   25.6162   13.3453 H           1 LIA       0.0304
     37 H7         -6.5058   26.4618   13.9509 H           1 LIA       0.0304
     38 H8         -7.5050   25.2482   15.7823 H           1 LIA       0.0479
     39 H9         -7.5826   23.7427   14.8661 H           1 LIA       0.0479
     40 H10        -6.5506   25.0907   10.6867 H           1 LIA       0.1881
     41 H11        -3.3206   28.9166   12.2440 H           1 LIA       0.0904
     42 H12         0.9802   29.9733    6.7332 H           1 LIA       0.0605
     43 H13        -0.0223   32.0651    7.3791 H           1 LIA       0.0512
     44 H14        -2.1629   33.9141   10.3114 H           1 LIA       0.0579
     45 H15        -0.6128   33.0693   10.2811 H           1 LIA       0.0579
     46 H16        -2.0536   32.2728   10.9637 H           1 LIA       0.0579
     47 H17        -5.6932   28.0251    7.5360 H           1 LIA       0.1831
     48 H18        -4.6818   29.3458    7.7385 H           1 LIA       0.1831
     49 H19        -6.2053   22.3239   18.7716 H           1 LIA       0.0482
     50 H20        -5.9329   21.5652   17.1856 H           1 LIA       0.0482
     51 H21        -7.4081   22.5188   17.4719 H           1 LIA       0.0482
@<TRIPOS>BOND
     1     1     2   1
     2     1     6   1
     3     1    27  am
     4     2     3   1
     5     3     4   1
     6     4     5   1
     7     4     7   1
     8     5     6   1
     9     7     8   1
    10     8     9  ar
    11     8    13  ar
    12     9    10  ar
    13    10    11  ar
    14    11    12  ar
    15    11    14   1
    16    12    13  ar
    17    12    26   1
    18    14    15   2
    19    14    16   1
    20    16    17  ar
    21    16    21  ar
    22    17    18  ar
    23    17    24   1
    24    18    19  ar
    25    18    25   1
    26    19    20  ar
    27    20    21  ar
    28    21    22   1
    29    22    23   1
    30    27    28   1
    31    27    29   2
    32    27    30   2
    33     2    31   1
    34     2    32   1
    35     3    33   1
    36     3    34   1
    37     4    35   1
    38     5    36   1
    39     5    37   1
    40     6    38   1
    41     6    39   1
    42     7    40   1
    43    10    41   1
    44    19    42   1
    45    20    43   1
    46    23    44   1
    47    23    45   1
    48    23    46   1
    49    26    47   1
    50    26    48   1
    51    28    49   1
    52    28    50   1
    53    28    51   1
@<TRIPOS>SUBSTRUCTURE
     1  LIA      2

