@<TRIPOS>MOLECULE
2fvd_ligand_028
    51    53
SMALL
GAST_HUCK
****
This file was generated by PARSER (from files_GN.cpp)

@<TRIPOS>ATOM
      1 N1         -4.9646   23.8826   14.8306 N.am        1 LIA      -0.2385
      2 C2         -6.2571   24.2179   14.2800 C.3         1 LIA       0.0314
      3 C3         -6.1593   24.9507   12.9127 C.3         1 LIA      -0.0122
      4 C4         -5.1814   26.1548   12.9736 C.3         1 LIA       0.0456
      5 C5         -3.8137   25.6686   13.5401 C.3         1 LIA      -0.0122
      6 C6         -3.9571   24.9087   14.8855 C.3         1 LIA       0.0314
      7 N7         -5.1990   26.8638   11.7157 N.pl3       1 LIA      -0.2866
      8 C8         -4.1940   27.2316   10.8798 C.ar        1 LIA       0.1789
      9 N9         -2.9070   26.8344   11.0285 N.ar        1 LIA      -0.2656
     10 C10        -1.9163   27.2518   10.1997 C.ar        1 LIA       0.0186
     11 C11        -2.1916   28.1748    9.1663 C.ar        1 LIA       0.0852
     12 C12        -3.5440   28.5552    9.0002 C.ar        1 LIA       0.1302
     13 N13        -4.4906   28.0686    9.8484 N.ar        1 LIA      -0.2356
     14 C14        -1.1455   28.6851    8.3887 C.2         1 LIA       0.1492
     15 O15        -0.5034   27.8455    7.7674 O.2         1 LIA      -0.3856
     16 C16        -0.6974   30.0271    8.4118 C.ar        1 LIA       0.0920
     17 C17        -0.9630   30.8886    9.5205 C.ar        1 LIA       0.1766
     18 C18        -0.5156   32.2281    9.5305 C.ar        1 LIA       0.1591
     19 C19         0.1764   32.7474    8.4254 C.ar        1 LIA      -0.0338
     20 C20         0.4499   31.9240    7.3230 C.ar        1 LIA      -0.0322
     21 C21         0.0658   30.5660    7.3261 C.ar        1 LIA       0.1052
     22 O22         0.3345   29.8245    6.1961 O.3         1 LIA      -0.3192
     23 C23         1.7172   29.4620    5.9996 C.3         1 LIA       0.0603
     24 F24        -1.5841   30.4834   10.6008 F           1 LIA      -0.1811
     25 F25        -0.7512   32.9997   10.5591 F           1 LIA      -0.1924
     26 N26        -3.9602   29.3786    8.0220 N.pl3       1 LIA      -0.3135
     27 S27        -4.8610   22.5886   15.9227 S.o2        1 LIA       0.0385
     28 C28        -6.1042   22.5842   17.2283 C.3         1 LIA       0.0734
     29 O29        -3.4726   22.5994   16.7002 O.2         1 LIA      -0.1556
     30 O30        -4.8815   21.2063   15.1403 O.2         1 LIA      -0.1556
     31 H1         -6.7870   24.8576   14.9977 H           1 LIA       0.0479
     32 H2         -6.8711   23.3244   14.1301 H           1 LIA       0.0479
     33 H3         -7.1560   25.3002   12.6299 H           1 LIA       0.0304
     34 H4         -5.8183   24.2453   12.1519 H           1 LIA       0.0304
     35 H5         -5.6001   26.8569   13.6967 H           1 LIA       0.0563
     36 H6         -3.1499   26.5259   13.6846 H           1 LIA       0.0304
     37 H7         -3.3481   24.9892   12.8220 H           1 LIA       0.0304
     38 H8         -2.9742   24.4882   15.1143 H           1 LIA       0.0479
     39 H9         -4.2131   25.6034   15.6911 H           1 LIA       0.0479
     40 H10        -6.0731   27.1891   11.4618 H           1 LIA       0.1881
     41 H11        -0.9588   26.9350   10.3808 H           1 LIA       0.0904
     42 H12         0.4835   33.7233    8.4162 H           1 LIA       0.0605
     43 H13         0.9336   32.3267    6.5149 H           1 LIA       0.0512
     44 H14         1.7694   28.7784    5.1540 H           1 LIA       0.0579
     45 H15         2.1410   28.9583    6.8719 H           1 LIA       0.0579
     46 H16         2.3261   30.3345    5.7550 H           1 LIA       0.0579
     47 H17        -4.9043   29.6068    7.9387 H           1 LIA       0.1831
     48 H18        -3.3156   29.7231    7.3790 H           1 LIA       0.1831
     49 H19        -5.9372   21.7302   17.8864 H           1 LIA       0.0482
     50 H20        -7.0999   22.5121   16.7916 H           1 LIA       0.0482
     51 H21        -6.0266   23.5058   17.8063 H           1 LIA       0.0482
@<TRIPOS>BOND
     1     1     2   1
     2     1     6   1
     3     1    27  am
     4     2     3   1
     5     3     4   1
     6     4     5   1
     7     4     7   1
     8     5     6   1
     9     7     8   1
    10     8     9  ar
    11     8    13  ar
    12     9    10  ar
    13    10    11  ar
    14    11    12  ar
    15    11    14   1
    16    12    13  ar
    17    12    26   1
    18    14    15   2
    19    14    16   1
    20    16    17  ar
    21    16    21  ar
    22    17    18  ar
    23    17    24   1
    24    18    19  ar
    25    18    25   1
    26    19    20  ar
    27    20    21  ar
    28    21    22   1
    29    22    23   1
    30    27    28   1
    31    27    29   2
    32    27    30   2
    33     2    31   1
    34     2    32   1
    35     3    33   1
    36     3    34   1
    37     4    35   1
    38     5    36   1
    39     5    37   1
    40     6    38   1
    41     6    39   1
    42     7    40   1
    43    10    41   1
    44    19    42   1
    45    20    43   1
    46    23    44   1
    47    23    45   1
    48    23    46   1
    49    26    47   1
    50    26    48   1
    51    28    49   1
    52    28    50   1
    53    28    51   1
@<TRIPOS>SUBSTRUCTURE
     1  LIA      2

