@<TRIPOS>MOLECULE
2fvd_ligand_056
    51    53
SMALL
GAST_HUCK
****
This file was generated by PARSER (from files_GN.cpp)

@<TRIPOS>ATOM
      1 N1         -5.8367   20.1728   21.6297 N.am        1 LIA      -0.2385
      2 C2         -6.4663   19.3345   20.6386 C.3         1 LIA       0.0314
      3 C3         -5.6381   19.2438   19.3350 C.3         1 LIA      -0.0122
      4 C4         -5.2546   20.6595   18.8332 C.3         1 LIA       0.0456
      5 C5         -4.4727   21.4121   19.9398 C.3         1 LIA      -0.0122
      6 C6         -5.2866   21.4518   21.2547 C.3         1 LIA       0.0314
      7 N7         -4.4702   20.5294   17.6512 N.pl3       1 LIA      -0.2866
      8 C8         -4.2222   21.4982   16.7525 C.ar        1 LIA       0.1789
      9 N9         -3.5506   21.1464   15.6305 N.ar        1 LIA      -0.2656
     10 C10        -3.2679   22.0485   14.6657 C.ar        1 LIA       0.0186
     11 C11        -3.6540   23.4050   14.7873 C.ar        1 LIA       0.0852
     12 C12        -4.3707   23.7367   15.9675 C.ar        1 LIA       0.1302
     13 N13        -4.6318   22.7837   16.8969 N.ar        1 LIA      -0.2356
     14 C14        -3.3251   24.3341   13.7948 C.2         1 LIA       0.1492
     15 O15        -3.0681   25.4908   14.1051 O.2         1 LIA      -0.3856
     16 C16        -3.6055   24.1077   12.4541 C.ar        1 LIA       0.0920
     17 C17        -4.8207   24.5976   11.8996 C.ar        1 LIA       0.1766
     18 C18        -5.1505   24.3276   10.5539 C.ar        1 LIA       0.1591
     19 C19        -4.2861   23.5502    9.7623 C.ar        1 LIA      -0.0338
     20 C20        -3.0527   23.1203   10.2830 C.ar        1 LIA      -0.0322
     21 C21        -2.6899   23.4187   11.6120 C.ar        1 LIA       0.1052
     22 O22        -1.4934   22.9150   12.0635 O.3         1 LIA      -0.3192
     23 C23        -0.3975   23.8447   12.1029 C.3         1 LIA       0.0603
     24 F24        -5.6601   25.3052   12.6155 F           1 LIA      -0.1811
     25 F25        -6.2492   24.7966   10.0296 F           1 LIA      -0.1924
     26 N26        -4.8801   24.9584   16.2302 N.pl3       1 LIA      -0.3135
     27 S27        -6.2463   19.9406   23.2570 S.o2        1 LIA       0.0385
     28 C28        -4.8880   19.2480   24.2117 C.3         1 LIA       0.0734
     29 O29        -7.5061   18.9796   23.4096 O.2         1 LIA      -0.1556
     30 O30        -6.7241   21.3137   23.9043 O.2         1 LIA      -0.1556
     31 H1         -7.4571   19.7396   20.4097 H           1 LIA       0.0479
     32 H2         -6.5986   18.3139   21.0122 H           1 LIA       0.0479
     33 H3         -6.2194   18.7177   18.5709 H           1 LIA       0.0304
     34 H4         -4.7340   18.6551   19.5256 H           1 LIA       0.0304
     35 H5         -6.1731   21.2025   18.5993 H           1 LIA       0.0563
     36 H6         -4.2559   22.4355   19.6196 H           1 LIA       0.0304
     37 H7         -3.5164   20.9085   20.1185 H           1 LIA       0.0304
     38 H8         -4.6144   21.8227   22.0304 H           1 LIA       0.0479
     39 H9         -6.1043   22.1693   21.1453 H           1 LIA       0.0479
     40 H10        -4.1266   19.6477   17.4428 H           1 LIA       0.1881
     41 H11        -2.7497   21.7026   13.8604 H           1 LIA       0.0904
     42 H12        -4.5466   23.3068    8.8030 H           1 LIA       0.0605
     43 H13        -2.4184   22.5842    9.6876 H           1 LIA       0.0512
     44 H14         0.4832   23.3013   12.4484 H           1 LIA       0.0579
     45 H15        -0.5839   24.6642   12.8010 H           1 LIA       0.0579
     46 H16        -0.1811   24.2505   11.1123 H           1 LIA       0.0579
     47 H17        -5.3964   25.1033   17.0401 H           1 LIA       0.1831
     48 H18        -4.7567   25.6936   15.6107 H           1 LIA       0.1831
     49 H19        -5.1978   19.1250   25.2493 H           1 LIA       0.0482
     50 H20        -4.0294   19.9186   24.1657 H           1 LIA       0.0482
     51 H21        -4.6128   18.2778   23.7972 H           1 LIA       0.0482
@<TRIPOS>BOND
     1     1     2   1
     2     1     6   1
     3     1    27  am
     4     2     3   1
     5     3     4   1
     6     4     5   1
     7     4     7   1
     8     5     6   1
     9     7     8   1
    10     8     9  ar
    11     8    13  ar
    12     9    10  ar
    13    10    11  ar
    14    11    12  ar
    15    11    14   1
    16    12    13  ar
    17    12    26   1
    18    14    15   2
    19    14    16   1
    20    16    17  ar
    21    16    21  ar
    22    17    18  ar
    23    17    24   1
    24    18    19  ar
    25    18    25   1
    26    19    20  ar
    27    20    21  ar
    28    21    22   1
    29    22    23   1
    30    27    28   1
    31    27    29   2
    32    27    30   2
    33     2    31   1
    34     2    32   1
    35     3    33   1
    36     3    34   1
    37     4    35   1
    38     5    36   1
    39     5    37   1
    40     6    38   1
    41     6    39   1
    42     7    40   1
    43    10    41   1
    44    19    42   1
    45    20    43   1
    46    23    44   1
    47    23    45   1
    48    23    46   1
    49    26    47   1
    50    26    48   1
    51    28    49   1
    52    28    50   1
    53    28    51   1
@<TRIPOS>SUBSTRUCTURE
     1  LIA      2

