@<TRIPOS>MOLECULE
2fvd_ligand_065
    51    53
SMALL
GAST_HUCK
****
This file was generated by PARSER (from files_GN.cpp)

@<TRIPOS>ATOM
      1 N1          6.2763   26.2192    4.0736 N.am        1 LIA      -0.2385
      2 C2          5.1741   26.0922    4.9924 C.3         1 LIA       0.0314
      3 C3          4.7232   24.6070    5.0581 C.3         1 LIA      -0.0122
      4 C4          5.9213   23.6589    5.3649 C.3         1 LIA       0.0456
      5 C5          7.0867   23.9401    4.3620 C.3         1 LIA      -0.0122
      6 C6          7.4644   25.4458    4.3401 C.3         1 LIA       0.0314
      7 N7          6.2940   23.8242    6.7435 N.pl3       1 LIA      -0.2866
      8 C8          7.0464   22.9917    7.4957 C.ar        1 LIA       0.1789
      9 N9          7.6498   21.8758    7.0095 N.ar        1 LIA      -0.2656
     10 C10         8.3978   21.0719    7.8009 C.ar        1 LIA       0.0186
     11 C11         8.5606   21.3548    9.1804 C.ar        1 LIA       0.0852
     12 C12         7.8904   22.5096    9.6691 C.ar        1 LIA       0.1302
     13 N13         7.1773   23.2816    8.8127 N.ar        1 LIA      -0.2356
     14 C14         9.3492   20.5246    9.9720 C.2         1 LIA       0.1492
     15 O15        10.4515   20.2352    9.5236 O.2         1 LIA      -0.3856
     16 C16         8.9251   19.8842   11.1525 C.ar        1 LIA       0.0920
     17 C17         9.8442   19.1395   11.9431 C.ar        1 LIA       0.1766
     18 C18         9.4172   18.4487   13.0969 C.ar        1 LIA       0.1591
     19 C19         8.0683   18.4933   13.4858 C.ar        1 LIA      -0.0338
     20 C20         7.1478   19.2278   12.7290 C.ar        1 LIA      -0.0322
     21 C21         7.5568   19.9062   11.5612 C.ar        1 LIA       0.1052
     22 O22         6.5883   20.5781   10.8572 O.3         1 LIA      -0.3192
     23 C23         5.9099   19.7652    9.8827 C.3         1 LIA       0.0603
     24 F24        11.1176   19.0871   11.6422 F           1 LIA      -0.1811
     25 F25        10.2597   17.7568   13.8194 F           1 LIA      -0.1924
     26 N26         7.9384   22.9072   10.9541 N.pl3       1 LIA      -0.3135
     27 S27         6.0396   26.9946    2.5849 S.o2        1 LIA       0.0385
     28 C28         4.3501   26.8751    1.9704 C.3         1 LIA       0.0734
     29 O29         6.9048   26.3153    1.4331 O.2         1 LIA      -0.1556
     30 O30         6.4843   28.5208    2.6780 O.2         1 LIA      -0.1556
     31 H1          4.3193   26.7144    4.7175 H           1 LIA       0.0479
     32 H2          5.5020   26.4233    5.9805 H           1 LIA       0.0479
     33 H3          4.2882   24.3265    4.0949 H           1 LIA       0.0304
     34 H4          3.9485   24.4859    5.8169 H           1 LIA       0.0304
     35 H5          5.5795   22.6238    5.2286 H           1 LIA       0.0563
     36 H6          6.7652   23.6499    3.3584 H           1 LIA       0.0304
     37 H7          7.9626   23.3356    4.6087 H           1 LIA       0.0304
     38 H8          7.8695   25.7287    5.3186 H           1 LIA       0.0479
     39 H9          8.2559   25.6108    3.6072 H           1 LIA       0.0479
     40 H10         5.9206   24.5894    7.2064 H           1 LIA       0.1881
     41 H11         8.8174   20.2345    7.3830 H           1 LIA       0.0904
     42 H12         7.7556   17.9901   14.3212 H           1 LIA       0.0605
     43 H13         6.1683   19.2517   13.0194 H           1 LIA       0.0512
     44 H14         5.1950   20.3992    9.3592 H           1 LIA       0.0579
     45 H15         5.3604   18.9492   10.3560 H           1 LIA       0.0579
     46 H16         6.6052   19.3559    9.1470 H           1 LIA       0.0579
     47 H17         7.4429   23.6945   11.2357 H           1 LIA       0.1831
     48 H18         8.4545   22.4094   11.6049 H           1 LIA       0.1831
     49 H19         4.2812   27.3451    0.9877 H           1 LIA       0.0482
     50 H20         3.6683   27.3738    2.6575 H           1 LIA       0.0482
     51 H21         4.0764   25.8226    1.8882 H           1 LIA       0.0482
@<TRIPOS>BOND
     1     1     2   1
     2     1     6   1
     3     1    27  am
     4     2     3   1
     5     3     4   1
     6     4     5   1
     7     4     7   1
     8     5     6   1
     9     7     8   1
    10     8     9  ar
    11     8    13  ar
    12     9    10  ar
    13    10    11  ar
    14    11    12  ar
    15    11    14   1
    16    12    13  ar
    17    12    26   1
    18    14    15   2
    19    14    16   1
    20    16    17  ar
    21    16    21  ar
    22    17    18  ar
    23    17    24   1
    24    18    19  ar
    25    18    25   1
    26    19    20  ar
    27    20    21  ar
    28    21    22   1
    29    22    23   1
    30    27    28   1
    31    27    29   2
    32    27    30   2
    33     2    31   1
    34     2    32   1
    35     3    33   1
    36     3    34   1
    37     4    35   1
    38     5    36   1
    39     5    37   1
    40     6    38   1
    41     6    39   1
    42     7    40   1
    43    10    41   1
    44    19    42   1
    45    20    43   1
    46    23    44   1
    47    23    45   1
    48    23    46   1
    49    26    47   1
    50    26    48   1
    51    28    49   1
    52    28    50   1
    53    28    51   1
@<TRIPOS>SUBSTRUCTURE
     1  LIA      2

