@<TRIPOS>MOLECULE
2fvd_ligand_046
    51    53
SMALL
GAST_HUCK
****
This file was generated by PARSER (from files_GN.cpp)

@<TRIPOS>ATOM
      1 N1          0.4907   21.3199   10.3534 N.am        1 LIA      -0.2385
      2 C2          1.4017   21.7866   11.3673 C.3         1 LIA       0.0314
      3 C3          0.6765   22.7171   12.3687 C.3         1 LIA      -0.0122
      4 C4         -0.1306   23.8421   11.6575 C.3         1 LIA       0.0456
      5 C5         -1.0076   23.2900   10.4929 C.3         1 LIA      -0.0122
      6 C6         -0.2229   22.3112    9.5859 C.3         1 LIA       0.0314
      7 N7         -0.8703   24.6474   12.5944 N.pl3       1 LIA      -0.2866
      8 C8         -1.8903   24.2431   13.3859 C.ar        1 LIA       0.1789
      9 N9         -2.3828   25.1110   14.3030 N.ar        1 LIA      -0.2656
     10 C10        -3.3773   24.7596   15.1574 C.ar        1 LIA       0.0186
     11 C11        -3.9342   23.4616   15.1136 C.ar        1 LIA       0.0852
     12 C12        -3.4320   22.5828   14.1215 C.ar        1 LIA       0.1302
     13 N13        -2.4286   22.9966   13.3137 N.ar        1 LIA      -0.2356
     14 C14        -5.0061   23.1363   15.9198 C.2         1 LIA       0.1492
     15 O15        -6.0356   23.6933   15.5641 O.2         1 LIA      -0.3856
     16 C16        -4.9569   22.3684   17.1046 C.ar        1 LIA       0.0920
     17 C17        -3.9196   21.4194   17.3682 C.ar        1 LIA       0.1766
     18 C18        -3.9071   20.6538   18.5526 C.ar        1 LIA       0.1591
     19 C19        -4.8903   20.8544   19.5331 C.ar        1 LIA      -0.0338
     20 C20        -5.8935   21.8067   19.3215 C.ar        1 LIA      -0.0322
     21 C21        -5.9530   22.5327   18.1128 C.ar        1 LIA       0.1052
     22 O22        -6.9198   23.5043   18.0423 O.3         1 LIA      -0.3192
     23 C23        -8.1945   23.0519   17.5527 C.3         1 LIA       0.0603
     24 F24        -2.9284   21.2156   16.5452 F           1 LIA      -0.1811
     25 F25        -2.9778   19.7617   18.7753 F           1 LIA      -0.1924
     26 N26        -3.8982   21.3354   13.9417 N.pl3       1 LIA      -0.3135
     27 S27         0.6798   19.7672    9.7015 S.o2        1 LIA       0.0385
     28 C28         1.1530   18.4612   10.8556 C.3         1 LIA       0.0734
     29 O29         1.6838   19.7862    8.4687 O.2         1 LIA      -0.1556
     30 O30        -0.7428   19.3013    9.1657 O.2         1 LIA      -0.1556
     31 H1          2.2258   22.3224   10.8885 H           1 LIA       0.0479
     32 H2          1.8342   20.9648   11.9413 H           1 LIA       0.0479
     33 H3          1.4168   23.1676   13.0364 H           1 LIA       0.0304
     34 H4          0.0101   22.0997   12.9745 H           1 LIA       0.0304
     35 H5          0.6012   24.5192   11.2071 H           1 LIA       0.0563
     36 H6         -1.3757   24.1248    9.8908 H           1 LIA       0.0304
     37 H7         -1.8795   22.7567   10.8751 H           1 LIA       0.0304
     38 H8         -0.9487   21.8515    8.9141 H           1 LIA       0.0479
     39 H9          0.4870   22.8669    8.9686 H           1 LIA       0.0479
     40 H10        -0.5734   25.5696   12.7050 H           1 LIA       0.1881
     41 H11        -3.7251   25.4565   15.8165 H           1 LIA       0.0904
     42 H12        -4.8638   20.3246   20.4091 H           1 LIA       0.0605
     43 H13        -6.5777   21.9765   20.0591 H           1 LIA       0.0512
     44 H14        -8.8818   23.8986   17.5636 H           1 LIA       0.0579
     45 H15        -8.6170   22.2646   18.1815 H           1 LIA       0.0579
     46 H16        -8.1155   22.6931   16.5254 H           1 LIA       0.0579
     47 H17        -3.5526   20.7772   13.2212 H           1 LIA       0.1831
     48 H18        -4.6031   20.9922   14.5140 H           1 LIA       0.1831
     49 H19         1.1377   17.4991   10.3421 H           1 LIA       0.0482
     50 H20         0.4501   18.4344   11.6891 H           1 LIA       0.0482
     51 H21         2.1583   18.6436   11.2337 H           1 LIA       0.0482
@<TRIPOS>BOND
     1     1     2   1
     2     1     6   1
     3     1    27  am
     4     2     3   1
     5     3     4   1
     6     4     5   1
     7     4     7   1
     8     5     6   1
     9     7     8   1
    10     8     9  ar
    11     8    13  ar
    12     9    10  ar
    13    10    11  ar
    14    11    12  ar
    15    11    14   1
    16    12    13  ar
    17    12    26   1
    18    14    15   2
    19    14    16   1
    20    16    17  ar
    21    16    21  ar
    22    17    18  ar
    23    17    24   1
    24    18    19  ar
    25    18    25   1
    26    19    20  ar
    27    20    21  ar
    28    21    22   1
    29    22    23   1
    30    27    28   1
    31    27    29   2
    32    27    30   2
    33     2    31   1
    34     2    32   1
    35     3    33   1
    36     3    34   1
    37     4    35   1
    38     5    36   1
    39     5    37   1
    40     6    38   1
    41     6    39   1
    42     7    40   1
    43    10    41   1
    44    19    42   1
    45    20    43   1
    46    23    44   1
    47    23    45   1
    48    23    46   1
    49    26    47   1
    50    26    48   1
    51    28    49   1
    52    28    50   1
    53    28    51   1
@<TRIPOS>SUBSTRUCTURE
     1  LIA      2

