@<TRIPOS>MOLECULE
2fvd_ligand_008
    51    53
SMALL
GAST_HUCK
****
This file was generated by PARSER (from files_GN.cpp)

@<TRIPOS>ATOM
      1 N1         -5.9652   20.5365   21.2674 N.am        1 LIA      -0.2385
      2 C2         -6.3397   19.5674   20.2676 C.3         1 LIA       0.0314
      3 C3         -5.3686   19.5554   19.0550 C.3         1 LIA      -0.0122
      4 C4         -5.1187   20.9910   18.5112 C.3         1 LIA       0.0456
      5 C5         -4.5715   21.8524   19.6874 C.3         1 LIA      -0.0122
      6 C6         -5.5771   21.8629   20.8656 C.3         1 LIA       0.0314
      7 N7         -4.2680   20.9392   17.3556 N.pl3       1 LIA      -0.2866
      8 C8         -3.8447   21.9875   16.6145 C.ar        1 LIA       0.1789
      9 N9         -3.1778   21.7328   15.4638 N.ar        1 LIA      -0.2656
     10 C10        -2.6811   22.7276   14.6849 C.ar        1 LIA       0.0186
     11 C11        -2.8639   24.0832   15.0448 C.ar        1 LIA       0.0852
     12 C12        -3.5671   24.3341   16.2508 C.ar        1 LIA       0.1302
     13 N13        -4.0342   23.2872   16.9758 N.ar        1 LIA      -0.2356
     14 C14        -2.3622   25.0834   14.2279 C.2         1 LIA       0.1492
     15 O15        -1.1422   25.0416   14.1137 O.2         1 LIA      -0.3856
     16 C16        -3.1326   25.9778   13.4357 C.ar        1 LIA       0.0920
     17 C17        -2.5085   27.1219   12.8597 C.ar        1 LIA       0.1766
     18 C18        -3.2176   28.0035   12.0251 C.ar        1 LIA       0.1591
     19 C19        -4.5777   27.7767   11.7627 C.ar        1 LIA      -0.0338
     20 C20        -5.2194   26.6672   12.3194 C.ar        1 LIA      -0.0322
     21 C21        -4.5178   25.7578   13.1533 C.ar        1 LIA       0.1052
     22 O22        -5.1318   24.6363   13.6695 O.3         1 LIA      -0.3192
     23 C23        -6.5424   24.3939   13.6228 C.3         1 LIA       0.0603
     24 F24        -1.2526   27.4278   13.0825 F           1 LIA      -0.1811
     25 F25        -2.6326   29.0397   11.4913 F           1 LIA      -0.1924
     26 N26        -3.7647   25.5581   16.7647 N.pl3       1 LIA      -0.3135
     27 S27        -6.4664   20.2874   22.8654 S.o2        1 LIA       0.0385
     28 C28        -5.2244   19.3830   23.8008 C.3         1 LIA       0.0734
     29 O29        -7.8528   19.5117   22.9133 O.2         1 LIA      -0.1556
     30 O30        -6.7532   21.6727   23.5962 O.2         1 LIA      -0.1556
     31 H1         -7.3511   19.7971   19.9222 H           1 LIA       0.0479
     32 H2         -6.3547   18.5588   20.6912 H           1 LIA       0.0479
     33 H3         -5.7786   18.9171   18.2674 H           1 LIA       0.0304
     34 H4         -4.4171   19.1156   19.3733 H           1 LIA       0.0304
     35 H5         -6.0743   21.4098   18.1830 H           1 LIA       0.0563
     36 H6         -4.4042   22.8851   19.3812 H           1 LIA       0.0304
     37 H7         -3.6145   21.4472   20.0310 H           1 LIA       0.0304
     38 H8         -5.1037   22.4025   21.6886 H           1 LIA       0.0479
     39 H9         -6.4745   22.4186   20.5768 H           1 LIA       0.0479
     40 H10        -4.0382   20.0587   17.0139 H           1 LIA       0.1881
     41 H11        -2.1809   22.4778   13.8290 H           1 LIA       0.0904
     42 H12        -5.1045   28.4208   11.1709 H           1 LIA       0.0605
     43 H13        -6.2054   26.5262   12.1033 H           1 LIA       0.0512
     44 H14        -6.7603   23.5386   14.2618 H           1 LIA       0.0579
     45 H15        -6.8437   24.1548   12.6000 H           1 LIA       0.0579
     46 H16        -7.1080   25.2551   13.9887 H           1 LIA       0.0579
     47 H17        -4.1476   25.6551   17.6537 H           1 LIA       0.1831
     48 H18        -3.4965   26.3538   16.2800 H           1 LIA       0.1831
     49 H19        -5.5477   19.2641   24.8348 H           1 LIA       0.0482
     50 H20        -4.2846   19.9344   23.7773 H           1 LIA       0.0482
     51 H21        -5.0777   18.4015   23.3493 H           1 LIA       0.0482
@<TRIPOS>BOND
     1     1     2   1
     2     1     6   1
     3     1    27  am
     4     2     3   1
     5     3     4   1
     6     4     5   1
     7     4     7   1
     8     5     6   1
     9     7     8   1
    10     8     9  ar
    11     8    13  ar
    12     9    10  ar
    13    10    11  ar
    14    11    12  ar
    15    11    14   1
    16    12    13  ar
    17    12    26   1
    18    14    15   2
    19    14    16   1
    20    16    17  ar
    21    16    21  ar
    22    17    18  ar
    23    17    24   1
    24    18    19  ar
    25    18    25   1
    26    19    20  ar
    27    20    21  ar
    28    21    22   1
    29    22    23   1
    30    27    28   1
    31    27    29   2
    32    27    30   2
    33     2    31   1
    34     2    32   1
    35     3    33   1
    36     3    34   1
    37     4    35   1
    38     5    36   1
    39     5    37   1
    40     6    38   1
    41     6    39   1
    42     7    40   1
    43    10    41   1
    44    19    42   1
    45    20    43   1
    46    23    44   1
    47    23    45   1
    48    23    46   1
    49    26    47   1
    50    26    48   1
    51    28    49   1
    52    28    50   1
    53    28    51   1
@<TRIPOS>SUBSTRUCTURE
     1  LIA      2

