@<TRIPOS>MOLECULE
2fvd_ligand_023
    51    53
SMALL
GAST_HUCK
****
This file was generated by PARSER (from files_GN.cpp)

@<TRIPOS>ATOM
      1 N1          0.5896   27.6684    9.4248 N.am        1 LIA      -0.2385
      2 C2          0.2072   28.6140    8.4073 C.3         1 LIA       0.0314
      3 C3          1.4519   29.4072    7.9216 C.3         1 LIA      -0.0122
      4 C4          2.6264   28.4725    7.5094 C.3         1 LIA       0.0456
      5 C5          2.9020   27.4155    8.6179 C.3         1 LIA      -0.0122
      6 C6          1.6061   26.7005    9.0893 C.3         1 LIA       0.0314
      7 N7          2.3326   27.8530    6.2448 N.pl3       1 LIA      -0.2866
      8 C8          3.2062   27.6202    5.2457 C.ar        1 LIA       0.1789
      9 N9          4.5480   27.7968    5.3660 N.ar        1 LIA      -0.2656
     10 C10         5.3991   27.5649    4.3339 C.ar        1 LIA       0.0186
     11 C11         4.9111   27.1416    3.0756 C.ar        1 LIA       0.0852
     12 C12         3.5109   26.9483    2.9788 C.ar        1 LIA       0.1302
     13 N13         2.7172   27.1859    4.0546 N.ar        1 LIA      -0.2356
     14 C14         5.7999   26.9448    2.0277 C.2         1 LIA       0.1492
     15 O15         5.5817   27.4864    0.9496 O.2         1 LIA      -0.3856
     16 C16         6.7919   25.9761    2.0934 C.ar        1 LIA       0.0920
     17 C17         6.4242   24.6025    2.0605 C.ar        1 LIA       0.1766
     18 C18         7.4080   23.5990    2.1497 C.ar        1 LIA       0.1591
     19 C19         8.7582   23.9566    2.2793 C.ar        1 LIA      -0.0338
     20 C20         9.1330   25.3109    2.3071 C.ar        1 LIA      -0.0322
     21 C21         8.1648   26.3397    2.2032 C.ar        1 LIA       0.1052
     22 O22         8.4621   27.6921    2.2536 O.3         1 LIA      -0.3192
     23 C23         9.8078   28.1941    2.1626 C.3         1 LIA       0.0603
     24 F24         5.1711   24.2326    1.9327 F           1 LIA      -0.1811
     25 F25         7.0776   22.3363    2.1159 F           1 LIA      -0.1924
     26 N26         2.8921   26.4939    1.8717 N.pl3       1 LIA      -0.3135
     27 S27         0.1955   27.9527   11.0476 S.o2        1 LIA       0.0385
     28 C28         1.3466   29.0074   11.9452 C.3         1 LIA       0.0734
     29 O29         0.0550   26.5638   11.8114 O.2         1 LIA      -0.1556
     30 O30        -1.2697   28.5623   11.1627 O.2         1 LIA      -0.1556
     31 H1         -0.5497   29.3199    8.7563 H           1 LIA       0.0479
     32 H2         -0.2329   28.0700    7.5656 H           1 LIA       0.0479
     33 H3          1.7843   30.0574    8.7340 H           1 LIA       0.0304
     34 H4          1.1694   30.0464    7.0787 H           1 LIA       0.0304
     35 H5          3.5189   29.1001    7.4091 H           1 LIA       0.0563
     36 H6          3.3515   27.9172    9.4802 H           1 LIA       0.0304
     37 H7          3.6179   26.6728    8.2591 H           1 LIA       0.0304
     38 H8          1.2329   26.0616    8.2853 H           1 LIA       0.0479
     39 H9          1.8494   26.0427    9.9306 H           1 LIA       0.0479
     40 H10         1.4011   27.6421    6.0700 H           1 LIA       0.1881
     41 H11         6.3926   27.7270    4.4824 H           1 LIA       0.0904
     42 H12         9.4786   23.2357    2.3558 H           1 LIA       0.0605
     43 H13        10.1279   25.5221    2.4077 H           1 LIA       0.0512
     44 H14         9.7742   29.2823    2.1814 H           1 LIA       0.0579
     45 H15        10.2755   27.8805    1.2281 H           1 LIA       0.0579
     46 H16        10.4111   27.8603    3.0098 H           1 LIA       0.0579
     47 H17         1.9285   26.3800    1.8748 H           1 LIA       0.1831
     48 H18         3.3960   26.2173    1.0911 H           1 LIA       0.1831
     49 H19         1.0484   29.0687   12.9921 H           1 LIA       0.0482
     50 H20         1.3440   30.0043   11.5074 H           1 LIA       0.0482
     51 H21         2.3465   28.5822   11.8796 H           1 LIA       0.0482
@<TRIPOS>BOND
     1     1     2   1
     2     1     6   1
     3     1    27  am
     4     2     3   1
     5     3     4   1
     6     4     5   1
     7     4     7   1
     8     5     6   1
     9     7     8   1
    10     8     9  ar
    11     8    13  ar
    12     9    10  ar
    13    10    11  ar
    14    11    12  ar
    15    11    14   1
    16    12    13  ar
    17    12    26   1
    18    14    15   2
    19    14    16   1
    20    16    17  ar
    21    16    21  ar
    22    17    18  ar
    23    17    24   1
    24    18    19  ar
    25    18    25   1
    26    19    20  ar
    27    20    21  ar
    28    21    22   1
    29    22    23   1
    30    27    28   1
    31    27    29   2
    32    27    30   2
    33     2    31   1
    34     2    32   1
    35     3    33   1
    36     3    34   1
    37     4    35   1
    38     5    36   1
    39     5    37   1
    40     6    38   1
    41     6    39   1
    42     7    40   1
    43    10    41   1
    44    19    42   1
    45    20    43   1
    46    23    44   1
    47    23    45   1
    48    23    46   1
    49    26    47   1
    50    26    48   1
    51    28    49   1
    52    28    50   1
    53    28    51   1
@<TRIPOS>SUBSTRUCTURE
     1  LIA      2

