@<TRIPOS>MOLECULE
2fvd_ligand_038
    51    53
SMALL
GAST_HUCK
****
This file was generated by PARSER (from files_GN.cpp)

@<TRIPOS>ATOM
      1 N1         -2.1214   30.6862   10.2443 N.am        1 LIA      -0.2385
      2 C2         -2.0744   30.2451   11.6189 C.3         1 LIA       0.0314
      3 C3         -2.0105   28.6992   11.7273 C.3         1 LIA      -0.0122
      4 C4         -3.1326   28.0352   10.8816 C.3         1 LIA       0.0456
      5 C5         -3.0975   28.5613    9.4189 C.3         1 LIA      -0.0122
      6 C6         -3.1234   30.1105    9.3793 C.3         1 LIA       0.0314
      7 N7         -3.1391   26.6040   10.9655 N.pl3       1 LIA      -0.2866
      8 C8         -2.2081   25.7333   10.5159 C.ar        1 LIA       0.1789
      9 N9         -1.0531   26.0962    9.9010 N.ar        1 LIA      -0.2656
     10 C10        -0.1560   25.1828    9.4555 C.ar        1 LIA       0.0186
     11 C11        -0.3838   23.7964    9.6310 C.ar        1 LIA       0.0852
     12 C12        -1.6110   23.4467   10.2562 C.ar        1 LIA       0.1302
     13 N13        -2.4637   24.4138   10.6754 N.ar        1 LIA      -0.2356
     14 C14         0.5738   22.8606    9.2235 C.2         1 LIA       0.1492
     15 O15         1.2050   23.0975    8.1997 O.2         1 LIA      -0.3856
     16 C16         0.9274   21.7133    9.9479 C.ar        1 LIA       0.0920
     17 C17         1.1678   20.4793    9.2800 C.ar        1 LIA       0.1766
     18 C18         1.4953   19.3165   10.0070 C.ar        1 LIA       0.1591
     19 C19         1.5967   19.3682   11.4068 C.ar        1 LIA      -0.0338
     20 C20         1.3761   20.5774   12.0822 C.ar        1 LIA      -0.0322
     21 C21         1.0561   21.7496   11.3671 C.ar        1 LIA       0.1052
     22 O22         0.8164   22.8931   12.0878 O.3         1 LIA      -0.3192
     23 C23         1.9910   23.4953   12.6552 C.3         1 LIA       0.0603
     24 F24         1.0466   20.3697    7.9800 F           1 LIA      -0.1811
     25 F25         1.6918   18.1775    9.3964 F           1 LIA      -0.1924
     26 N26        -2.0270   22.1815   10.4423 N.pl3       1 LIA      -0.3135
     27 S27        -1.5439   32.2365    9.8765 S.o2        1 LIA       0.0385
     28 C28        -1.1598   32.5013    8.1331 C.3         1 LIA       0.0734
     29 O29        -0.1515   32.4856   10.6041 O.2         1 LIA      -0.1556
     30 O30        -2.5461   33.3541   10.3994 O.2         1 LIA      -0.1556
     31 H1         -2.9659   30.6091   12.1381 H           1 LIA       0.0479
     32 H2         -1.2037   30.6450   12.1428 H           1 LIA       0.0479
     33 H3         -2.1156   28.4034   12.7750 H           1 LIA       0.0304
     34 H4         -1.0291   28.3673   11.3809 H           1 LIA       0.0304
     35 H5         -4.0883   28.3511   11.3137 H           1 LIA       0.0563
     36 H6         -3.9557   28.1689    8.8658 H           1 LIA       0.0304
     37 H7         -2.1887   28.2213    8.9163 H           1 LIA       0.0304
     38 H8         -2.9793   30.4073    8.3384 H           1 LIA       0.0479
     39 H9         -4.1093   30.4674    9.6902 H           1 LIA       0.0479
     40 H10        -3.9204   26.2075   11.3841 H           1 LIA       0.1881
     41 H11         0.7003   25.5275    9.0146 H           1 LIA       0.0904
     42 H12         1.8230   18.5254   11.9388 H           1 LIA       0.0605
     43 H13         1.4495   20.6052   13.1019 H           1 LIA       0.0512
     44 H14         1.6912   24.4245   13.1420 H           1 LIA       0.0579
     45 H15         2.7363   23.7323   11.8914 H           1 LIA       0.0579
     46 H16         2.4356   22.8434   13.4102 H           1 LIA       0.0579
     47 H17        -2.8781   22.0149   10.8751 H           1 LIA       0.1831
     48 H18        -1.4946   21.4370   10.1281 H           1 LIA       0.1831
     49 H19        -0.6955   33.4790    8.0075 H           1 LIA       0.0482
     50 H20        -2.0709   32.4620    7.5376 H           1 LIA       0.0482
     51 H21        -0.4720   31.7280    7.7902 H           1 LIA       0.0482
@<TRIPOS>BOND
     1     1     2   1
     2     1     6   1
     3     1    27  am
     4     2     3   1
     5     3     4   1
     6     4     5   1
     7     4     7   1
     8     5     6   1
     9     7     8   1
    10     8     9  ar
    11     8    13  ar
    12     9    10  ar
    13    10    11  ar
    14    11    12  ar
    15    11    14   1
    16    12    13  ar
    17    12    26   1
    18    14    15   2
    19    14    16   1
    20    16    17  ar
    21    16    21  ar
    22    17    18  ar
    23    17    24   1
    24    18    19  ar
    25    18    25   1
    26    19    20  ar
    27    20    21  ar
    28    21    22   1
    29    22    23   1
    30    27    28   1
    31    27    29   2
    32    27    30   2
    33     2    31   1
    34     2    32   1
    35     3    33   1
    36     3    34   1
    37     4    35   1
    38     5    36   1
    39     5    37   1
    40     6    38   1
    41     6    39   1
    42     7    40   1
    43    10    41   1
    44    19    42   1
    45    20    43   1
    46    23    44   1
    47    23    45   1
    48    23    46   1
    49    26    47   1
    50    26    48   1
    51    28    49   1
    52    28    50   1
    53    28    51   1
@<TRIPOS>SUBSTRUCTURE
     1  LIA      2

