@<TRIPOS>MOLECULE
2fvd_ligand_044
    51    53
SMALL
GAST_HUCK
****
This file was generated by PARSER (from files_GN.cpp)

@<TRIPOS>ATOM
      1 N1          1.2559   21.9921    9.9150 N.am        1 LIA      -0.2385
      2 C2          0.1897   22.9375   10.1168 C.3         1 LIA       0.0314
      3 C3          0.1304   23.3150   11.6176 C.3         1 LIA      -0.0122
      4 C4          1.4969   23.9123   12.0945 C.3         1 LIA       0.0456
      5 C5          2.6300   22.8871   11.7669 C.3         1 LIA      -0.0122
      6 C6          2.5885   22.4082   10.2857 C.3         1 LIA       0.0314
      7 N7          1.8183   25.1922   11.5149 N.pl3       1 LIA      -0.2866
      8 C8          1.0764   26.3222   11.5591 C.ar        1 LIA       0.1789
      9 N9          1.5213   27.4140   10.8814 N.ar        1 LIA      -0.2656
     10 C10         0.8101   28.5649   10.8112 C.ar        1 LIA       0.0186
     11 C11        -0.4457   28.6777   11.4549 C.ar        1 LIA       0.0852
     12 C12        -0.8802   27.5322   12.1740 C.ar        1 LIA       0.1302
     13 N13        -0.1175   26.4110   12.2018 N.ar        1 LIA      -0.2356
     14 C14        -1.1765   29.8619   11.4046 C.2         1 LIA       0.1492
     15 O15        -1.6261   30.3125   12.4508 O.2         1 LIA      -0.3856
     16 C16        -1.7866   30.2957   10.2331 C.ar        1 LIA       0.0920
     17 C17        -1.0978   31.1603    9.3424 C.ar        1 LIA       0.1766
     18 C18        -1.7352   31.6593    8.1877 C.ar        1 LIA       0.1591
     19 C19        -3.0722   31.3213    7.9206 C.ar        1 LIA      -0.0338
     20 C20        -3.7771   30.4969    8.8114 C.ar        1 LIA      -0.0322
     21 C21        -3.1427   29.9658    9.9573 C.ar        1 LIA       0.1052
     22 O22        -3.8860   29.2268   10.8475 O.3         1 LIA      -0.3192
     23 C23        -4.3407   27.9485   10.3666 C.3         1 LIA       0.0603
     24 F24         0.1210   31.5634    9.5905 F           1 LIA      -0.1811
     25 F25        -1.1082   32.4686    7.3726 F           1 LIA      -0.1924
     26 N26        -2.0680   27.4600   12.8006 N.pl3       1 LIA      -0.3135
     27 S27         0.9147   20.3465    9.6919 S.o2        1 LIA       0.0385
     28 C28         1.3839   19.2915   11.0766 C.3         1 LIA       0.0734
     29 O29         1.6171   19.8357    8.3597 O.2         1 LIA      -0.1556
     30 O30        -0.6384   20.0954    9.4485 O.2         1 LIA      -0.1556
     31 H1         -0.7820   22.5586    9.7966 H           1 LIA       0.0479
     32 H2          0.3870   23.8322    9.5222 H           1 LIA       0.0479
     33 H3         -0.0802   22.4085   12.1977 H           1 LIA       0.0304
     34 H4         -0.6969   24.0100   11.7811 H           1 LIA       0.0304
     35 H5          1.4610   24.0460   13.1794 H           1 LIA       0.0563
     36 H6          2.5183   22.0165   12.4176 H           1 LIA       0.0304
     37 H7          3.6088   23.3249   11.9799 H           1 LIA       0.0304
     38 H8          2.8939   23.2319    9.6356 H           1 LIA       0.0479
     39 H9          3.3222   21.6082   10.1460 H           1 LIA       0.0479
     40 H10         2.6588   25.2544   11.0314 H           1 LIA       0.1881
     41 H11         1.2203   29.3516   10.3036 H           1 LIA       0.0904
     42 H12        -3.5457   31.6985    7.0939 H           1 LIA       0.0605
     43 H13        -4.7656   30.3001    8.6307 H           1 LIA       0.0512
     44 H14        -4.8621   27.4456   11.1820 H           1 LIA       0.0579
     45 H15        -3.5026   27.3214   10.0543 H           1 LIA       0.0579
     46 H16        -5.0430   28.0586    9.5371 H           1 LIA       0.0579
     47 H17        -2.3366   26.6358   13.2338 H           1 LIA       0.1831
     48 H18        -2.6873   28.2063   12.7660 H           1 LIA       0.1831
     49 H19         1.0434   18.2727   10.8886 H           1 LIA       0.0482
     50 H20         0.9234   19.6636   11.9918 H           1 LIA       0.0482
     51 H21         2.4682   19.2936   11.1897 H           1 LIA       0.0482
@<TRIPOS>BOND
     1     1     2   1
     2     1     6   1
     3     1    27  am
     4     2     3   1
     5     3     4   1
     6     4     5   1
     7     4     7   1
     8     5     6   1
     9     7     8   1
    10     8     9  ar
    11     8    13  ar
    12     9    10  ar
    13    10    11  ar
    14    11    12  ar
    15    11    14   1
    16    12    13  ar
    17    12    26   1
    18    14    15   2
    19    14    16   1
    20    16    17  ar
    21    16    21  ar
    22    17    18  ar
    23    17    24   1
    24    18    19  ar
    25    18    25   1
    26    19    20  ar
    27    20    21  ar
    28    21    22   1
    29    22    23   1
    30    27    28   1
    31    27    29   2
    32    27    30   2
    33     2    31   1
    34     2    32   1
    35     3    33   1
    36     3    34   1
    37     4    35   1
    38     5    36   1
    39     5    37   1
    40     6    38   1
    41     6    39   1
    42     7    40   1
    43    10    41   1
    44    19    42   1
    45    20    43   1
    46    23    44   1
    47    23    45   1
    48    23    46   1
    49    26    47   1
    50    26    48   1
    51    28    49   1
    52    28    50   1
    53    28    51   1
@<TRIPOS>SUBSTRUCTURE
     1  LIA      2

