@<TRIPOS>MOLECULE
2fvd_ligand_045
    51    53
SMALL
GAST_HUCK
****
This file was generated by PARSER (from files_GN.cpp)

@<TRIPOS>ATOM
      1 N1         -4.1699   24.5098   15.8991 N.am        1 LIA      -0.2385
      2 C2         -5.1458   24.1400   14.9023 C.3         1 LIA       0.0314
      3 C3         -4.9521   24.9926   13.6123 C.3         1 LIA      -0.0122
      4 C4         -3.4728   24.9589   13.1142 C.3         1 LIA       0.0456
      5 C5         -2.5377   25.3577   14.2996 C.3         1 LIA      -0.0122
      6 C6         -2.7772   24.4474   15.5308 C.3         1 LIA       0.0314
      7 N7         -3.2138   23.6562   12.5644 N.pl3       1 LIA      -0.2866
      8 C8         -2.0488   23.1671   12.0836 C.ar        1 LIA       0.1789
      9 N9         -0.8901   23.8692   12.0444 N.ar        1 LIA      -0.2656
     10 C10         0.2691   23.3060   11.6260 C.ar        1 LIA       0.0186
     11 C11         0.3221   21.9514   11.2116 C.ar        1 LIA       0.0852
     12 C12        -0.9189   21.2602   11.2189 C.ar        1 LIA       0.1302
     13 N13        -2.0419   21.8826   11.6540 N.ar        1 LIA      -0.2356
     14 C14         1.5370   21.3712   10.8333 C.2         1 LIA       0.1492
     15 O15         1.5418   20.5559    9.9181 O.2         1 LIA      -0.3856
     16 C16         2.7686   21.6908   11.4266 C.ar        1 LIA       0.0920
     17 C17         2.9277   21.6170   12.8403 C.ar        1 LIA       0.1766
     18 C18         4.1476   21.9781   13.4477 C.ar        1 LIA       0.1591
     19 C19         5.2214   22.4285   12.6566 C.ar        1 LIA      -0.0338
     20 C20         5.0812   22.4937   11.2604 C.ar        1 LIA      -0.0322
     21 C21         3.8759   22.1073   10.6400 C.ar        1 LIA       0.1052
     22 O22         3.7546   22.2704    9.2803 O.3         1 LIA      -0.3192
     23 C23         4.3676   21.2339    8.4969 C.3         1 LIA       0.0603
     24 F24         1.9623   21.1863   13.6142 F           1 LIA      -0.1811
     25 F25         4.2989   21.9072   14.7415 F           1 LIA      -0.1924
     26 N26        -1.0655   19.9642   10.8769 N.pl3       1 LIA      -0.3135
     27 S27        -4.6296   25.3008   17.3305 S.o2        1 LIA       0.0385
     28 C28        -6.2093   26.1715   17.2892 C.3         1 LIA       0.0734
     29 O29        -3.5537   26.4283   17.6550 O.2         1 LIA      -0.1556
     30 O30        -4.6304   24.2762   18.5473 O.2         1 LIA      -0.1556
     31 H1         -6.1722   24.2517   15.2570 H           1 LIA       0.0479
     32 H2         -5.0143   23.0817   14.6601 H           1 LIA       0.0479
     33 H3         -5.2426   26.0261   13.8254 H           1 LIA       0.0304
     34 H4         -5.6239   24.6246   12.8305 H           1 LIA       0.0304
     35 H5         -3.3603   25.6953   12.3139 H           1 LIA       0.0563
     36 H6         -2.7472   26.3932   14.5881 H           1 LIA       0.0304
     37 H7         -1.4879   25.3162   14.0077 H           1 LIA       0.0304
     38 H8         -2.5120   23.4175   15.2810 H           1 LIA       0.0479
     39 H9         -2.1075   24.7572   16.3360 H           1 LIA       0.0479
     40 H10        -3.9671   23.0442   12.5377 H           1 LIA       0.1881
     41 H11         1.1066   23.8902   11.6146 H           1 LIA       0.0904
     42 H12         6.1016   22.7118   13.0926 H           1 LIA       0.0605
     43 H13         5.8614   22.8366   10.6976 H           1 LIA       0.0512
     44 H14         4.1603   21.4383    7.4468 H           1 LIA       0.0579
     45 H15         3.9614   20.2494    8.7397 H           1 LIA       0.0579
     46 H16         5.4526   21.2199    8.6312 H           1 LIA       0.0579
     47 H17        -1.9485   19.5618   10.9231 H           1 LIA       0.1831
     48 H18        -0.3028   19.4278   10.6017 H           1 LIA       0.1831
     49 H19        -6.3100   26.7915   18.1811 H           1 LIA       0.0482
     50 H20        -7.0259   25.4532   17.2651 H           1 LIA       0.0482
     51 H21        -6.2598   26.8064   16.4055 H           1 LIA       0.0482
@<TRIPOS>BOND
     1     1     2   1
     2     1     6   1
     3     1    27  am
     4     2     3   1
     5     3     4   1
     6     4     5   1
     7     4     7   1
     8     5     6   1
     9     7     8   1
    10     8     9  ar
    11     8    13  ar
    12     9    10  ar
    13    10    11  ar
    14    11    12  ar
    15    11    14   1
    16    12    13  ar
    17    12    26   1
    18    14    15   2
    19    14    16   1
    20    16    17  ar
    21    16    21  ar
    22    17    18  ar
    23    17    24   1
    24    18    19  ar
    25    18    25   1
    26    19    20  ar
    27    20    21  ar
    28    21    22   1
    29    22    23   1
    30    27    28   1
    31    27    29   2
    32    27    30   2
    33     2    31   1
    34     2    32   1
    35     3    33   1
    36     3    34   1
    37     4    35   1
    38     5    36   1
    39     5    37   1
    40     6    38   1
    41     6    39   1
    42     7    40   1
    43    10    41   1
    44    19    42   1
    45    20    43   1
    46    23    44   1
    47    23    45   1
    48    23    46   1
    49    26    47   1
    50    26    48   1
    51    28    49   1
    52    28    50   1
    53    28    51   1
@<TRIPOS>SUBSTRUCTURE
     1  LIA      2

