@<TRIPOS>MOLECULE
2fvd_ligand_024
    51    53
SMALL
GAST_HUCK
****
This file was generated by PARSER (from files_GN.cpp)

@<TRIPOS>ATOM
      1 N1         -5.4891   24.6311   14.6431 N.am        1 LIA      -0.2385
      2 C2         -4.5428   23.6652   15.1395 C.3         1 LIA       0.0314
      3 C3         -3.0729   24.0667   14.8413 C.3         1 LIA      -0.0122
      4 C4         -2.8794   24.4227   13.3441 C.3         1 LIA       0.0456
      5 C5         -3.8901   25.5283   12.9393 C.3         1 LIA      -0.0122
      6 C6         -5.3499   25.1415   13.2995 C.3         1 LIA       0.0314
      7 N7         -1.5461   24.8976   13.1270 N.pl3       1 LIA      -0.2866
      8 C8         -0.5032   24.1877   12.6315 C.ar        1 LIA       0.1789
      9 N9         -0.5931   22.8858   12.2578 N.ar        1 LIA      -0.2656
     10 C10         0.4902   22.1961   11.8176 C.ar        1 LIA       0.0186
     11 C11         1.7663   22.8111   11.7410 C.ar        1 LIA       0.0852
     12 C12         1.8179   24.1793   12.1138 C.ar        1 LIA       0.1302
     13 N13         0.6971   24.8099   12.5513 N.ar        1 LIA      -0.2356
     14 C14         2.8863   22.0755   11.3370 C.2         1 LIA       0.1492
     15 O15         3.6094   22.5998   10.4970 O.2         1 LIA      -0.3856
     16 C16         3.1759   20.7703   11.7677 C.ar        1 LIA       0.0920
     17 C17         2.7769   20.3132   13.0594 C.ar        1 LIA       0.1766
     18 C18         3.0103   18.9850   13.4672 C.ar        1 LIA       0.1591
     19 C19         3.6581   18.0856   12.6049 C.ar        1 LIA      -0.0338
     20 C20         4.0895   18.5220   11.3435 C.ar        1 LIA      -0.0322
     21 C21         3.8817   19.8512   10.9307 C.ar        1 LIA       0.1052
     22 O22         4.2944   20.1987    9.6622 O.3         1 LIA      -0.3192
     23 C23         5.6966   20.5089    9.5707 C.3         1 LIA       0.0603
     24 F24         2.2112   21.1152   13.9239 F           1 LIA      -0.1811
     25 F25         2.6321   18.5698   14.6480 F           1 LIA      -0.1924
     26 N26         2.9411   24.9235   12.1081 N.pl3       1 LIA      -0.3135
     27 S27        -7.0443   24.6538   15.3287 S.o2        1 LIA       0.0385
     28 C28        -7.0890   24.5601   17.1292 C.3         1 LIA       0.0734
     29 O29        -7.9270   23.4823   14.7237 O.2         1 LIA      -0.1556
     30 O30        -7.7822   26.0186   14.9758 O.2         1 LIA      -0.1556
     31 H1         -4.7531   22.6944   14.6790 H           1 LIA       0.0479
     32 H2         -4.6278   23.5459   16.2223 H           1 LIA       0.0479
     33 H3         -2.4108   23.2386   15.1119 H           1 LIA       0.0304
     34 H4         -2.8083   24.9276   15.4655 H           1 LIA       0.0304
     35 H5         -3.0847   23.5351   12.7440 H           1 LIA       0.0563
     36 H6         -3.8213   25.7128   11.8620 H           1 LIA       0.0304
     37 H7         -3.6383   26.4617   13.4554 H           1 LIA       0.0304
     38 H8         -5.9624   26.0368   13.1521 H           1 LIA       0.0479
     39 H9         -5.7001   24.3790   12.5972 H           1 LIA       0.0479
     40 H10        -1.3486   25.8001   13.4174 H           1 LIA       0.1881
     41 H11         0.3578   21.2197   11.5471 H           1 LIA       0.0904
     42 H12         3.8241   17.1221   12.8955 H           1 LIA       0.0605
     43 H13         4.5586   17.8551   10.7215 H           1 LIA       0.0512
     44 H14         5.9086   20.8225    8.5506 H           1 LIA       0.0579
     45 H15         6.3163   19.6350    9.7954 H           1 LIA       0.0579
     46 H16         5.9748   21.3272   10.2418 H           1 LIA       0.0579
     47 H17         2.9113   25.8396   12.4233 H           1 LIA       0.1831
     48 H18         3.7845   24.5582   11.7961 H           1 LIA       0.1831
     49 H19        -8.1051   24.7456   17.4813 H           1 LIA       0.0482
     50 H20        -6.4173   25.3060   17.5549 H           1 LIA       0.0482
     51 H21        -6.7783   23.5651   17.4526 H           1 LIA       0.0482
@<TRIPOS>BOND
     1     1     2   1
     2     1     6   1
     3     1    27  am
     4     2     3   1
     5     3     4   1
     6     4     5   1
     7     4     7   1
     8     5     6   1
     9     7     8   1
    10     8     9  ar
    11     8    13  ar
    12     9    10  ar
    13    10    11  ar
    14    11    12  ar
    15    11    14   1
    16    12    13  ar
    17    12    26   1
    18    14    15   2
    19    14    16   1
    20    16    17  ar
    21    16    21  ar
    22    17    18  ar
    23    17    24   1
    24    18    19  ar
    25    18    25   1
    26    19    20  ar
    27    20    21  ar
    28    21    22   1
    29    22    23   1
    30    27    28   1
    31    27    29   2
    32    27    30   2
    33     2    31   1
    34     2    32   1
    35     3    33   1
    36     3    34   1
    37     4    35   1
    38     5    36   1
    39     5    37   1
    40     6    38   1
    41     6    39   1
    42     7    40   1
    43    10    41   1
    44    19    42   1
    45    20    43   1
    46    23    44   1
    47    23    45   1
    48    23    46   1
    49    26    47   1
    50    26    48   1
    51    28    49   1
    52    28    50   1
    53    28    51   1
@<TRIPOS>SUBSTRUCTURE
     1  LIA      2

