@<TRIPOS>MOLECULE
2fvd_ligand_026
    51    53
SMALL
GAST_HUCK
****
This file was generated by PARSER (from files_GN.cpp)

@<TRIPOS>ATOM
      1 N1          0.7813   30.3605    8.3386 N.am        1 LIA      -0.2385
      2 C2          1.5042   29.2619    8.9316 C.3         1 LIA       0.0314
      3 C3          1.2690   27.9707    8.1047 C.3         1 LIA      -0.0122
      4 C4          1.5768   28.1823    6.5897 C.3         1 LIA       0.0456
      5 C5          0.8565   29.4576    6.0541 C.3         1 LIA      -0.0122
      6 C6          1.0971   30.6885    6.9710 C.3         1 LIA       0.0314
      7 N7          2.9957   28.2394    6.3801 N.pl3       1 LIA      -0.2866
      8 C8          3.6558   27.8848    5.2539 C.ar        1 LIA       0.1789
      9 N9          5.0069   27.9609    5.2616 N.ar        1 LIA      -0.2656
     10 C10         5.7537   27.6211    4.1812 C.ar        1 LIA       0.0186
     11 C11         5.1501   27.1951    2.9706 C.ar        1 LIA       0.0852
     12 C12         3.7316   27.0742    3.0084 C.ar        1 LIA       0.1302
     13 N13         3.0414   27.4286    4.1290 N.ar        1 LIA      -0.2356
     14 C14         5.9099   26.9504    1.8183 C.2         1 LIA       0.1492
     15 O15         5.4796   27.2922    0.7221 O.2         1 LIA      -0.3856
     16 C16         7.1656   26.3563    1.8372 C.ar        1 LIA       0.0920
     17 C17         8.3203   27.0937    2.2031 C.ar        1 LIA       0.1766
     18 C18         9.5769   26.4586    2.2717 C.ar        1 LIA       0.1591
     19 C19         9.6978   25.0970    1.9439 C.ar        1 LIA      -0.0338
     20 C20         8.5699   24.3749    1.5227 C.ar        1 LIA      -0.0322
     21 C21         7.3049   24.9910    1.4723 C.ar        1 LIA       0.1052
     22 O22         6.2752   24.2728    0.9278 O.3         1 LIA      -0.3192
     23 C23         5.2933   23.8038    1.8745 C.3         1 LIA       0.0603
     24 F24         8.2557   28.3754    2.4747 F           1 LIA      -0.1811
     25 F25        10.6438   27.1268    2.6211 F           1 LIA      -0.1924
     26 N26         3.0071   26.5745    1.9869 N.pl3       1 LIA      -0.3135
     27 S27        -0.6863   30.8951    8.9980 S.o2        1 LIA       0.0385
     28 C28        -0.7527   32.6849    9.2033 C.3         1 LIA       0.0734
     29 O29        -0.9435   30.2805   10.4441 O.2         1 LIA      -0.1556
     30 O30        -1.9089   30.4089    8.1040 O.2         1 LIA      -0.1556
     31 H1          1.2214   29.0816    9.9713 H           1 LIA       0.0479
     32 H2          2.5713   29.4989    8.9347 H           1 LIA       0.0479
     33 H3          0.2243   27.6664    8.2212 H           1 LIA       0.0304
     34 H4          1.8926   27.1639    8.4999 H           1 LIA       0.0304
     35 H5          1.1822   27.3147    6.0598 H           1 LIA       0.0563
     36 H6         -0.2197   29.2660    6.0036 H           1 LIA       0.0304
     37 H7          1.1951   29.6883    5.0403 H           1 LIA       0.0304
     38 H8          2.1486   30.9792    6.9102 H           1 LIA       0.0479
     39 H9          0.5103   31.5338    6.6020 H           1 LIA       0.0479
     40 H10         3.5440   28.5038    7.1351 H           1 LIA       0.1881
     41 H11         6.7678   27.7060    4.2628 H           1 LIA       0.0904
     42 H12        10.6082   24.6335    1.9760 H           1 LIA       0.0605
     43 H13         8.6682   23.3978    1.2395 H           1 LIA       0.0512
     44 H14         4.5659   23.2020    1.3200 H           1 LIA       0.0579
     45 H15         4.7675   24.6407    2.3568 H           1 LIA       0.0579
     46 H16         5.7507   23.1603    2.6388 H           1 LIA       0.0579
     47 H17         2.0443   26.5049    2.0745 H           1 LIA       0.1831
     48 H18         3.4410   26.2230    1.1926 H           1 LIA       0.1831
     49 H19        -1.6921   32.9672    9.6814 H           1 LIA       0.0482
     50 H20        -0.6879   33.1697    8.2298 H           1 LIA       0.0482
     51 H21         0.0814   33.0107    9.8260 H           1 LIA       0.0482
@<TRIPOS>BOND
     1     1     2   1
     2     1     6   1
     3     1    27  am
     4     2     3   1
     5     3     4   1
     6     4     5   1
     7     4     7   1
     8     5     6   1
     9     7     8   1
    10     8     9  ar
    11     8    13  ar
    12     9    10  ar
    13    10    11  ar
    14    11    12  ar
    15    11    14   1
    16    12    13  ar
    17    12    26   1
    18    14    15   2
    19    14    16   1
    20    16    17  ar
    21    16    21  ar
    22    17    18  ar
    23    17    24   1
    24    18    19  ar
    25    18    25   1
    26    19    20  ar
    27    20    21  ar
    28    21    22   1
    29    22    23   1
    30    27    28   1
    31    27    29   2
    32    27    30   2
    33     2    31   1
    34     2    32   1
    35     3    33   1
    36     3    34   1
    37     4    35   1
    38     5    36   1
    39     5    37   1
    40     6    38   1
    41     6    39   1
    42     7    40   1
    43    10    41   1
    44    19    42   1
    45    20    43   1
    46    23    44   1
    47    23    45   1
    48    23    46   1
    49    26    47   1
    50    26    48   1
    51    28    49   1
    52    28    50   1
    53    28    51   1
@<TRIPOS>SUBSTRUCTURE
     1  LIA      2

