@<TRIPOS>MOLECULE
2fvd_ligand_022
    51    53
SMALL
GAST_HUCK
****
This file was generated by PARSER (from files_GN.cpp)

@<TRIPOS>ATOM
      1 N1         -1.3382   30.2958   10.8605 N.am        1 LIA      -0.2385
      2 C2         -0.0442   29.8276   10.4376 C.3         1 LIA       0.0314
      3 C3          0.0881   28.2863   10.5590 C.3         1 LIA      -0.0122
      4 C4         -0.3516   27.7466   11.9515 C.3         1 LIA       0.0456
      5 C5         -1.7676   28.3122   12.2825 C.3         1 LIA      -0.0122
      6 C6         -1.8482   29.8490   12.1282 C.3         1 LIA       0.0314
      7 N7         -0.2547   26.3081   11.9225 N.pl3       1 LIA      -0.2866
      8 C8         -0.9534   25.3851   12.6277 C.ar        1 LIA       0.1789
      9 N9         -1.9278   25.6963   13.5213 N.ar        1 LIA      -0.2656
     10 C10        -2.6739   24.7458   14.1346 C.ar        1 LIA       0.0186
     11 C11        -2.4968   23.3658   13.8482 C.ar        1 LIA       0.0852
     12 C12        -1.3959   23.0740   12.9887 C.ar        1 LIA       0.1302
     13 N13        -0.6922   24.0749   12.4013 N.ar        1 LIA      -0.2356
     14 C14        -3.3748   22.3887   14.3699 C.2         1 LIA       0.1492
     15 O15        -3.2175   21.2046   14.0915 O.2         1 LIA      -0.3856
     16 C16        -4.4648   22.6441   15.2097 C.ar        1 LIA       0.0920
     17 C17        -4.5573   21.9544   16.4436 C.ar        1 LIA       0.1766
     18 C18        -5.6158   22.2098   17.3326 C.ar        1 LIA       0.1591
     19 C19        -6.6044   23.1454   16.9891 C.ar        1 LIA      -0.0338
     20 C20        -6.5373   23.8200   15.7554 C.ar        1 LIA      -0.0322
     21 C21        -5.4809   23.5696   14.8426 C.ar        1 LIA       0.1052
     22 O22        -5.3565   24.2028   13.6174 O.3         1 LIA      -0.3192
     23 C23        -6.5217   24.6121   12.8769 C.3         1 LIA       0.0603
     24 F24        -3.6416   21.0930   16.8178 F           1 LIA      -0.1811
     25 F25        -5.6975   21.6045   18.4854 F           1 LIA      -0.1924
     26 N26        -0.9344   21.8398   12.7164 N.pl3       1 LIA      -0.3135
     27 S27        -1.9830   31.7243   10.2162 S.o2        1 LIA       0.0385
     28 C28        -0.8399   32.7657    9.2905 C.3         1 LIA       0.0734
     29 O29        -2.5302   32.6278   11.4075 O.2         1 LIA      -0.1556
     30 O30        -3.2083   31.3548    9.2731 O.2         1 LIA      -0.1556
     31 H1          0.7217   30.3104   11.0478 H           1 LIA       0.0479
     32 H2          0.1453   30.0852    9.3944 H           1 LIA       0.0479
     33 H3          1.1254   28.0043   10.3589 H           1 LIA       0.0304
     34 H4         -0.5375   27.8270    9.7878 H           1 LIA       0.0304
     35 H5          0.3542   28.1089   12.7059 H           1 LIA       0.0563
     36 H6         -2.0308   28.0844   13.3163 H           1 LIA       0.0304
     37 H7         -2.5100   27.8439   11.6281 H           1 LIA       0.0304
     38 H8         -2.8978   30.1365   12.2579 H           1 LIA       0.0479
     39 H9         -1.2731   30.3273   12.9275 H           1 LIA       0.0479
     40 H10         0.3900   25.9449   11.2917 H           1 LIA       0.1881
     41 H11        -3.3909   25.0638   14.7975 H           1 LIA       0.0904
     42 H12        -7.3753   23.3513   17.6368 H           1 LIA       0.0605
     43 H13        -7.2681   24.4919   15.5223 H           1 LIA       0.0512
     44 H14        -6.2051   24.9340   11.8747 H           1 LIA       0.0579
     45 H15        -7.0057   25.4694   13.3648 H           1 LIA       0.0579
     46 H16        -7.2492   23.7932   12.7526 H           1 LIA       0.0579
     47 H17        -0.1721   21.7434   12.1252 H           1 LIA       0.1831
     48 H18        -1.2679   21.0634   13.1820 H           1 LIA       0.1831
     49 H19        -1.3523   33.6754    8.9785 H           1 LIA       0.0482
     50 H20        -0.4889   32.2361    8.4044 H           1 LIA       0.0482
     51 H21         0.0099   33.0258    9.9228 H           1 LIA       0.0482
@<TRIPOS>BOND
     1     1     2   1
     2     1     6   1
     3     1    27  am
     4     2     3   1
     5     3     4   1
     6     4     5   1
     7     4     7   1
     8     5     6   1
     9     7     8   1
    10     8     9  ar
    11     8    13  ar
    12     9    10  ar
    13    10    11  ar
    14    11    12  ar
    15    11    14   1
    16    12    13  ar
    17    12    26   1
    18    14    15   2
    19    14    16   1
    20    16    17  ar
    21    16    21  ar
    22    17    18  ar
    23    17    24   1
    24    18    19  ar
    25    18    25   1
    26    19    20  ar
    27    20    21  ar
    28    21    22   1
    29    22    23   1
    30    27    28   1
    31    27    29   2
    32    27    30   2
    33     2    31   1
    34     2    32   1
    35     3    33   1
    36     3    34   1
    37     4    35   1
    38     5    36   1
    39     5    37   1
    40     6    38   1
    41     6    39   1
    42     7    40   1
    43    10    41   1
    44    19    42   1
    45    20    43   1
    46    23    44   1
    47    23    45   1
    48    23    46   1
    49    26    47   1
    50    26    48   1
    51    28    49   1
    52    28    50   1
    53    28    51   1
@<TRIPOS>SUBSTRUCTURE
     1  LIA      2

