@<TRIPOS>MOLECULE
2g70_ligand_004
    28    29
SMALL
GAST_HUCK
****
This file was generated by PARSER (from files_GN.cpp)

@<TRIPOS>ATOM
      1 C1         27.4930   44.8242   13.0408 C.3         1 HNT       0.0268
      2 C2         27.2212   43.5814   12.1363 C.3         1 HNT       0.0116
      3 O2         25.9641   42.9644   19.0769 O.2         1 HNT       0.1750
      4 C4         25.9402   42.4864   13.9773 C.3         1 HNT      -0.0003
      5 C5         26.3140   43.2771   16.3252 C.ar        1 HNT      -0.0189
      6 C6         26.8068   44.2000   17.2799 C.ar        1 HNT       0.1861
      7 C7         27.5030   45.3359   16.7989 C.ar        1 HNT      -0.0321
      8 C8         27.7196   45.5282   15.4255 C.ar        1 HNT      -0.0576
      9 O22        26.8195   45.2168   10.2874 O.3         1 HNT      -0.3893
     10 C22        27.2090   43.8817   10.6040 C.3         1 HNT       0.0887
     11 C8A        27.2510   44.5868   14.4865 C.ar        1 HNT      -0.0245
     12 N1         26.6123   44.0004   18.6155 N.2         1 HNT       0.3079
     13 O3         27.0138   44.7669   19.4509 O.2         1 HNT       0.1750
     14 C4A        26.5045   43.4688   14.9391 C.ar        1 HNT       0.0118
     15 N41        25.9604   42.9347   12.5656 N.4         1 HNT       0.2433
     16 H1         26.8430   45.6515   12.7580 H           1 HNT       0.0480
     17 H2         28.5257   45.1462   12.8898 H           1 HNT       0.0480
     18 H3         28.0229   42.8559   12.3104 H           1 HNT       0.0897
     19 H4         24.8969   42.2787   14.2293 H           1 HNT       0.0965
     20 H5         26.5004   41.5525   14.0658 H           1 HNT       0.0965
     21 H6         25.7954   42.4521   16.6379 H           1 HNT       0.0612
     22 H7         27.8675   46.0354   17.4485 H           1 HNT       0.0619
     23 H8         28.2254   46.3626   15.1139 H           1 HNT       0.0555
     24 H9         27.2580   45.4285    9.4342 H           1 HNT       0.2097
     25 H10        26.5352   43.2008   10.0779 H           1 HNT       0.0615
     26 H11        28.2081   43.7185   10.1947 H           1 HNT       0.0615
     27 H12        25.8058   42.1129   11.9825 H           1 HNT       0.2032
     28 H13        25.1906   43.5902   12.4174 H           1 HNT       0.2032
@<TRIPOS>BOND
     1     2     1   1
     2     1    11   1
     3     2    10   1
     4    15     2   1
     5    12     3   2
     6    14     4   1
     7     4    15   1
     8     6     5  ar
     9     5    14  ar
    10     6     7  ar
    11     6    12   1
    12     7     8  ar
    13     8    11  ar
    14    10     9   1
    15    11    14  ar
    16    12    13   2
    17     1    16   1
    18     1    17   1
    19     2    18   1
    20     4    19   1
    21     4    20   1
    22     5    21   1
    23     7    22   1
    24     8    23   1
    25     9    24   1
    26    10    25   1
    27    10    26   1
    28    15    27   1
    29    15    28   1
@<TRIPOS>SUBSTRUCTURE
     1  HNT      1

