@<TRIPOS>MOLECULE
2g70_ligand_008
    28    29
SMALL
GAST_HUCK
****
This file was generated by PARSER (from files_GN.cpp)

@<TRIPOS>ATOM
      1 C1         27.2654   44.1142   19.6527 C.3         1 HNT       0.0268
      2 C2         28.0926   43.1348   18.7787 C.3         1 HNT       0.0116
      3 O2         31.2952   49.1096   20.6918 O.2         1 HNT       0.1750
      4 C4         30.1976   44.3080   19.2771 C.3         1 HNT      -0.0003
      5 C5         30.0782   46.6495   20.1475 C.ar        1 HNT      -0.0189
      6 C6         29.3943   47.7516   20.7207 C.ar        1 HNT       0.1861
      7 C7         28.0175   47.5874   21.0012 C.ar        1 HNT      -0.0321
      8 C8         27.3417   46.4044   20.6662 C.ar        1 HNT      -0.0576
      9 O22        26.2576   41.7601   17.9109 O.3         1 HNT      -0.3893
     10 C22        27.4587   41.7260   18.6709 C.3         1 HNT       0.0887
     11 C8A        28.0165   45.3336   20.0551 C.ar        1 HNT      -0.0245
     12 N1         30.0401   48.9260   20.9621 N.2         1 HNT       0.3079
     13 O3         29.4867   49.8833   21.4412 O.2         1 HNT       0.1750
     14 C4A        29.4170   45.4436   19.8440 C.ar        1 HNT       0.0118
     15 N41        29.4639   43.0308   19.3292 N.4         1 HNT       0.2433
     16 H1         26.9464   43.6132   20.5634 H           1 HNT       0.0480
     17 H2         26.3755   44.4066   19.0985 H           1 HNT       0.0480
     18 H3         28.1598   43.5367   17.7638 H           1 HNT       0.0897
     19 H4         31.1312   44.1695   19.8244 H           1 HNT       0.0965
     20 H5         30.4433   44.5377   18.2399 H           1 HNT       0.0965
     21 H6         31.0785   46.7273   19.9400 H           1 HNT       0.0612
     22 H7         27.4855   48.3463   21.4308 H           1 HNT       0.0619
     23 H8         26.3399   46.3303   20.8701 H           1 HNT       0.0555
     24 H9         26.1430   40.8415   17.5812 H           1 HNT       0.2097
     25 H10        27.2290   41.3503   19.6707 H           1 HNT       0.0615
     26 H11        28.1556   41.0450   18.1758 H           1 HNT       0.0615
     27 H12        30.0074   42.3267   18.8174 H           1 HNT       0.2032
     28 H13        29.3896   42.7328   20.2980 H           1 HNT       0.2032
@<TRIPOS>BOND
     1     2     1   1
     2     1    11   1
     3     2    10   1
     4    15     2   1
     5    12     3   2
     6    14     4   1
     7     4    15   1
     8     6     5  ar
     9     5    14  ar
    10     6     7  ar
    11     6    12   1
    12     7     8  ar
    13     8    11  ar
    14    10     9   1
    15    11    14  ar
    16    12    13   2
    17     1    16   1
    18     1    17   1
    19     2    18   1
    20     4    19   1
    21     4    20   1
    22     5    21   1
    23     7    22   1
    24     8    23   1
    25     9    24   1
    26    10    25   1
    27    10    26   1
    28    15    27   1
    29    15    28   1
@<TRIPOS>SUBSTRUCTURE
     1  HNT      1

