@<TRIPOS>MOLECULE
2g70_ligand_042
    28    29
SMALL
GAST_HUCK
****
This file was generated by PARSER (from files_GN.cpp)

@<TRIPOS>ATOM
      1 C1         27.8397   46.0977   22.4973 C.3         1 HNT       0.0268
      2 C2         27.4483   44.9645   21.5163 C.3         1 HNT       0.0116
      3 O2         28.7156   51.3317   18.7194 O.2         1 HNT       0.1750
      4 C4         26.8984   46.6415   19.7521 C.3         1 HNT      -0.0003
      5 C5         28.0083   48.8862   19.8930 C.ar        1 HNT      -0.0189
      6 C6         28.7575   49.8844   20.5639 C.ar        1 HNT       0.1861
      7 C7         29.1731   49.6097   21.8897 C.ar        1 HNT      -0.0321
      8 C8         28.8703   48.3886   22.5074 C.ar        1 HNT      -0.0576
      9 O22        29.4642   45.1695   20.1024 O.3         1 HNT      -0.3893
     10 C22        28.6530   44.2533   20.8330 C.3         1 HNT       0.0887
     11 C8A        28.1529   47.3896   21.8188 C.ar        1 HNT      -0.0245
     12 N1         29.0723   51.0680   19.9499 N.2         1 HNT       0.3079
     13 O3         29.7015   51.9352   20.4914 O.2         1 HNT       0.1750
     14 C4A        27.6979   47.6538   20.5029 C.ar        1 HNT       0.0118
     15 N41        26.4483   45.4892   20.5533 N.4         1 HNT       0.2433
     16 H1         28.6919   45.7679   23.0991 H           1 HNT       0.0480
     17 H2         26.9973   46.2819   23.1747 H           1 HNT       0.0480
     18 H3         26.9372   44.1952   22.0918 H           1 HNT       0.0897
     19 H4         27.5012   46.2650   18.9213 H           1 HNT       0.0965
     20 H5         25.9999   47.1215   19.3551 H           1 HNT       0.0965
     21 H6         27.6710   49.0632   18.9419 H           1 HNT       0.0612
     22 H7         29.7099   50.3041   22.4167 H           1 HNT       0.0619
     23 H8         29.1895   48.2256   23.4695 H           1 HNT       0.0555
     24 H9         29.9136   45.7317   20.7652 H           1 HNT       0.2097
     25 H10        28.2806   43.5054   20.1303 H           1 HNT       0.0615
     26 H11        29.2597   43.7365   21.5925 H           1 HNT       0.0615
     27 H12        25.6315   45.7833   21.0969 H           1 HNT       0.2032
     28 H13        26.1536   44.7326   19.9334 H           1 HNT       0.2032
@<TRIPOS>BOND
     1     2     1   1
     2     1    11   1
     3     2    10   1
     4    15     2   1
     5    12     3   2
     6    14     4   1
     7     4    15   1
     8     6     5  ar
     9     5    14  ar
    10     6     7  ar
    11     6    12   1
    12     7     8  ar
    13     8    11  ar
    14    10     9   1
    15    11    14  ar
    16    12    13   2
    17     1    16   1
    18     1    17   1
    19     2    18   1
    20     4    19   1
    21     4    20   1
    22     5    21   1
    23     7    22   1
    24     8    23   1
    25     9    24   1
    26    10    25   1
    27    10    26   1
    28    15    27   1
    29    15    28   1
@<TRIPOS>SUBSTRUCTURE
     1  HNT      1

