@<TRIPOS>MOLECULE
2g70_ligand_036
    28    29
SMALL
GAST_HUCK
****
This file was generated by PARSER (from files_GN.cpp)

@<TRIPOS>ATOM
      1 C1         28.7858   43.8012   17.8880 C.3         1 HNT       0.0268
      2 C2         28.8326   44.8999   18.9974 C.3         1 HNT       0.0116
      3 O2         23.0597   40.8468   18.6794 O.2         1 HNT       0.1750
      4 C4         26.9162   43.8494   20.1787 C.3         1 HNT      -0.0003
      5 C5         25.4203   42.3225   18.8840 C.ar        1 HNT      -0.0189
      6 C6         25.0903   41.5431   17.7472 C.ar        1 HNT       0.1861
      7 C7         26.0176   41.5080   16.6819 C.ar        1 HNT      -0.0321
      8 C8         27.2165   42.2371   16.7423 C.ar        1 HNT      -0.0576
      9 O22        31.3044   44.5420   19.0678 O.3         1 HNT      -0.3893
     10 C22        30.2538   45.4854   19.2182 C.3         1 HNT       0.0887
     11 C8A        27.5164   43.0346   17.8661 C.ar        1 HNT      -0.0245
     12 N1         23.9193   40.8478   17.6960 N.2         1 HNT       0.3079
     13 O3         23.6148   40.1617   16.7549 O.2         1 HNT       0.1750
     14 C4A        26.6237   43.0509   18.9617 C.ar        1 HNT       0.0118
     15 N41        28.3103   44.3445   20.2623 N.4         1 HNT       0.2433
     16 H1         29.5809   43.0732   18.0383 H           1 HNT       0.0480
     17 H2         28.9472   44.2906   16.9206 H           1 HNT       0.0480
     18 H3         28.1661   45.7254   18.6915 H           1 HNT       0.0897
     19 H4         26.7553   43.2348   21.0631 H           1 HNT       0.0965
     20 H5         26.2284   44.6950   20.2334 H           1 HNT       0.0965
     21 H6         24.7736   42.3599   19.6702 H           1 HNT       0.0612
     22 H7         25.8292   40.9552   15.8450 H           1 HNT       0.0619
     23 H8         27.8619   42.1981   15.9489 H           1 HNT       0.0555
     24 H9         31.1889   43.9227   19.8200 H           1 HNT       0.2097
     25 H10        30.3375   45.9157   20.2152 H           1 HNT       0.0615
     26 H11        30.4274   46.2727   18.4936 H           1 HNT       0.0615
     27 H12        28.3494   45.0711   20.9827 H           1 HNT       0.2032
     28 H13        28.9045   43.5644   20.5553 H           1 HNT       0.2032
@<TRIPOS>BOND
     1     2     1   1
     2     1    11   1
     3     2    10   1
     4    15     2   1
     5    12     3   2
     6    14     4   1
     7     4    15   1
     8     6     5  ar
     9     5    14  ar
    10     6     7  ar
    11     6    12   1
    12     7     8  ar
    13     8    11  ar
    14    10     9   1
    15    11    14  ar
    16    12    13   2
    17     1    16   1
    18     1    17   1
    19     2    18   1
    20     4    19   1
    21     4    20   1
    22     5    21   1
    23     7    22   1
    24     8    23   1
    25     9    24   1
    26    10    25   1
    27    10    26   1
    28    15    27   1
    29    15    28   1
@<TRIPOS>SUBSTRUCTURE
     1  HNT      1

