@<TRIPOS>MOLECULE
2g70_ligand_005
    28    29
SMALL
GAST_HUCK
****
This file was generated by PARSER (from files_GN.cpp)

@<TRIPOS>ATOM
      1 C1         26.9842   50.1994   18.4174 C.3         1 HNT       0.0268
      2 C2         26.6614   51.0850   17.1797 C.3         1 HNT       0.0116
      3 O2         32.2914   52.9030   21.0686 O.2         1 HNT       0.1750
      4 C4         28.9713   52.0245   17.2063 C.3         1 HNT      -0.0003
      5 C5         30.2145   52.0000   19.3960 C.ar        1 HNT      -0.0189
      6 C6         30.3863   51.5883   20.7441 C.ar        1 HNT       0.1861
      7 C7         29.4531   50.6588   21.2646 C.ar        1 HNT      -0.0321
      8 C8         28.3895   50.1789   20.4849 C.ar        1 HNT      -0.0576
      9 O22        24.8711   51.4221   15.5055 O.3         1 HNT      -0.3893
     10 C22        25.5952   50.4373   16.2459 C.3         1 HNT       0.0887
     11 C8A        28.1928   50.6392   19.1680 C.ar        1 HNT      -0.0245
     12 N1         31.4020   52.0632   21.5215 N.2         1 HNT       0.3079
     13 O3         31.5370   51.7612   22.6797 O.2         1 HNT       0.1750
     14 C4A        29.1379   51.5345   18.6038 C.ar        1 HNT       0.0118
     15 N41        27.9122   51.3376   16.4322 N.4         1 HNT       0.2433
     16 H1         27.1344   49.1636   18.1041 H           1 HNT       0.0480
     17 H2         26.1174   50.2333   19.0838 H           1 HNT       0.0480
     18 H3         26.2563   52.0396   17.5324 H           1 HNT       0.0897
     19 H4         29.9050   51.8830   16.6609 H           1 HNT       0.0965
     20 H5         28.7506   53.0933   17.2307 H           1 HNT       0.0965
     21 H6         30.8769   52.6642   18.9866 H           1 HNT       0.0612
     22 H7         29.5368   50.3240   22.2281 H           1 HNT       0.0619
     23 H8         27.7382   49.5099   20.9021 H           1 HNT       0.0555
     24 H9         25.5440   51.9331   15.0046 H           1 HNT       0.2097
     25 H10        24.8623   49.8760   16.8282 H           1 HNT       0.0615
     26 H11        26.0709   49.7478   15.5425 H           1 HNT       0.0615
     27 H12        27.6927   51.8981   15.6063 H           1 HNT       0.2032
     28 H13        28.2734   50.4334   16.1212 H           1 HNT       0.2032
@<TRIPOS>BOND
     1     2     1   1
     2     1    11   1
     3     2    10   1
     4    15     2   1
     5    12     3   2
     6    14     4   1
     7     4    15   1
     8     6     5  ar
     9     5    14  ar
    10     6     7  ar
    11     6    12   1
    12     7     8  ar
    13     8    11  ar
    14    10     9   1
    15    11    14  ar
    16    12    13   2
    17     1    16   1
    18     1    17   1
    19     2    18   1
    20     4    19   1
    21     4    20   1
    22     5    21   1
    23     7    22   1
    24     8    23   1
    25     9    24   1
    26    10    25   1
    27    10    26   1
    28    15    27   1
    29    15    28   1
@<TRIPOS>SUBSTRUCTURE
     1  HNT      1

