@<TRIPOS>MOLECULE
2g70_ligand_025
    28    29
SMALL
GAST_HUCK
****
This file was generated by PARSER (from files_GN.cpp)

@<TRIPOS>ATOM
      1 C1         27.1041   51.9131   22.0670 C.3         1 HNT       0.0268
      2 C2         27.7968   51.3497   23.3455 C.3         1 HNT       0.0116
      3 O2         31.5415   51.2831   17.3881 O.2         1 HNT       0.1750
      4 C4         29.4845   50.1409   21.9293 C.3         1 HNT      -0.0003
      5 C5         29.9044   51.0187   19.6223 C.ar        1 HNT      -0.0189
      6 C6         29.5595   51.7928   18.4918 C.ar        1 HNT       0.1861
      7 C7         28.3703   52.5535   18.5488 C.ar        1 HNT      -0.0321
      8 C8         27.5886   52.5970   19.7141 C.ar        1 HNT      -0.0576
      9 O22        29.5572   53.1491   23.2185 O.3         1 HNT      -0.3893
     10 C22        28.7044   52.3896   24.0752 C.3         1 HNT       0.0887
     11 C8A        27.9557   51.8487   20.8480 C.ar        1 HNT      -0.0245
     12 N1         30.3542   51.8131   17.3893 N.2         1 HNT       0.3079
     13 O3         30.0364   52.3570   16.3653 O.2         1 HNT       0.1750
     14 C4A        29.1070   51.0181   20.7885 C.ar        1 HNT       0.0118
     15 N41        28.4694   50.0769   22.9989 N.4         1 HNT       0.2433
     16 H1         26.7882   52.9468   22.2604 H           1 HNT       0.0480
     17 H2         26.2027   51.3321   21.8678 H           1 HNT       0.0480
     18 H3         27.0085   51.0876   24.0591 H           1 HNT       0.0897
     19 H4         30.4324   50.4845   22.3517 H           1 HNT       0.0965
     20 H5         29.6197   49.1196   21.5677 H           1 HNT       0.0965
     21 H6         30.7350   50.4260   19.6013 H           1 HNT       0.0612
     22 H7         28.0715   53.1141   17.7511 H           1 HNT       0.0619
     23 H8         26.7533   53.1837   19.7359 H           1 HNT       0.0555
     24 H9         30.3297   52.5777   23.0269 H           1 HNT       0.2097
     25 H10        29.3247   51.8949   24.8256 H           1 HNT       0.0615
     26 H11        28.0648   53.1107   24.5904 H           1 HNT       0.0615
     27 H12        27.7252   49.4552   22.6676 H           1 HNT       0.2032
     28 H13        28.8948   49.6699   23.8405 H           1 HNT       0.2032
@<TRIPOS>BOND
     1     2     1   1
     2     1    11   1
     3     2    10   1
     4    15     2   1
     5    12     3   2
     6    14     4   1
     7     4    15   1
     8     6     5  ar
     9     5    14  ar
    10     6     7  ar
    11     6    12   1
    12     7     8  ar
    13     8    11  ar
    14    10     9   1
    15    11    14  ar
    16    12    13   2
    17     1    16   1
    18     1    17   1
    19     2    18   1
    20     4    19   1
    21     4    20   1
    22     5    21   1
    23     7    22   1
    24     8    23   1
    25     9    24   1
    26    10    25   1
    27    10    26   1
    28    15    27   1
    29    15    28   1
@<TRIPOS>SUBSTRUCTURE
     1  HNT      1

