@<TRIPOS>MOLECULE
2g70_ligand_032
    28    29
SMALL
GAST_HUCK
****
This file was generated by PARSER (from files_GN.cpp)

@<TRIPOS>ATOM
      1 C1         29.1525   51.6217   19.6148 C.3         1 HNT       0.0268
      2 C2         28.2333   52.2433   18.5240 C.3         1 HNT       0.0116
      3 O2         26.7654   45.6748   20.7646 O.2         1 HNT       0.1750
      4 C4         27.2350   49.9786   18.0459 C.3         1 HNT      -0.0003
      5 C5         27.4778   48.1905   19.7858 C.ar        1 HNT      -0.0189
      6 C6         27.9723   47.6657   20.9967 C.ar        1 HNT       0.1861
      7 C7         28.8562   48.4839   21.7473 C.ar        1 HNT      -0.0321
      8 C8         29.2388   49.7615   21.2875 C.ar        1 HNT      -0.0576
      9 O22        26.2389   52.2406   20.0434 O.3         1 HNT      -0.3893
     10 C22        27.0131   53.0011   19.1111 C.3         1 HNT       0.0887
     11 C8A        28.7146   50.2805   20.0835 C.ar        1 HNT      -0.0245
     12 N1         27.6061   46.4256   21.4287 N.2         1 HNT       0.3079
     13 O3         28.0365   45.9357   22.4394 O.2         1 HNT       0.1750
     14 C4A        27.8212   49.4840   19.3208 C.ar        1 HNT       0.0118
     15 N41        27.8552   51.2174   17.5250 N.4         1 HNT       0.2433
     16 H1         29.2144   52.3050   20.4692 H           1 HNT       0.0480
     17 H2         30.1624   51.5059   19.2114 H           1 HNT       0.0480
     18 H3         28.8272   52.9828   17.9802 H           1 HNT       0.0897
     19 H4         26.1627   50.1328   18.1827 H           1 HNT       0.0965
     20 H5         27.3463   49.2155   17.2702 H           1 HNT       0.0965
     21 H6         26.8675   47.6161   19.2057 H           1 HNT       0.0612
     22 H7         29.2364   48.1528   22.6356 H           1 HNT       0.0619
     23 H8         29.8956   50.3045   21.8451 H           1 HNT       0.0555
     24 H9         25.6650   51.6643   19.4814 H           1 HNT       0.2097
     25 H10        26.3627   53.3402   18.3047 H           1 HNT       0.0615
     26 H11        27.3658   53.8788   19.6467 H           1 HNT       0.0615
     27 H12        28.7064   50.9444   17.0250 H           1 HNT       0.2032
     28 H13        27.2110   51.6330   16.8501 H           1 HNT       0.2032
@<TRIPOS>BOND
     1     2     1   1
     2     1    11   1
     3     2    10   1
     4    15     2   1
     5    12     3   2
     6    14     4   1
     7     4    15   1
     8     6     5  ar
     9     5    14  ar
    10     6     7  ar
    11     6    12   1
    12     7     8  ar
    13     8    11  ar
    14    10     9   1
    15    11    14  ar
    16    12    13   2
    17     1    16   1
    18     1    17   1
    19     2    18   1
    20     4    19   1
    21     4    20   1
    22     5    21   1
    23     7    22   1
    24     8    23   1
    25     9    24   1
    26    10    25   1
    27    10    26   1
    28    15    27   1
    29    15    28   1
@<TRIPOS>SUBSTRUCTURE
     1  HNT      1

