@<TRIPOS>MOLECULE
2g70_ligand_043
    28    29
SMALL
GAST_HUCK
****
This file was generated by PARSER (from files_GN.cpp)

@<TRIPOS>ATOM
      1 C1         27.6582   43.2445   15.1576 C.3         1 HNT       0.0268
      2 C2         27.0527   43.1419   13.7260 C.3         1 HNT       0.0116
      3 O2         23.0471   40.8320   19.0681 O.2         1 HNT       0.1750
      4 C4         24.7759   42.7942   14.6579 C.3         1 HNT      -0.0003
      5 C5         24.5805   41.9257   17.0003 C.ar        1 HNT      -0.0189
      6 C6         25.1029   41.6237   18.2817 C.ar        1 HNT       0.1861
      7 C7         26.4733   41.9010   18.5094 C.ar        1 HNT      -0.0321
      8 C8         27.2887   42.4350   17.4984 C.ar        1 HNT      -0.0576
      9 O22        27.4105   43.6811   11.3595 O.3         1 HNT      -0.3893
     10 C22        27.8555   43.9624   12.6852 C.3         1 HNT       0.0887
     11 C8A        26.7646   42.7018   16.2165 C.ar        1 HNT      -0.0245
     12 N1         24.3119   41.0930   19.2565 N.2         1 HNT       0.3079
     13 O3         24.7249   40.8242   20.3561 O.2         1 HNT       0.1750
     14 C4A        25.3828   42.4788   15.9789 C.ar        1 HNT       0.0118
     15 N41        25.6450   43.5968   13.7672 N.4         1 HNT       0.2433
     16 H1         27.8650   44.2887   15.4060 H           1 HNT       0.0480
     17 H2         28.6078   42.7049   15.1662 H           1 HNT       0.0480
     18 H3         27.0685   42.0934   13.4063 H           1 HNT       0.0897
     19 H4         23.8568   43.3669   14.8031 H           1 HNT       0.0965
     20 H5         24.5166   41.8590   14.1555 H           1 HNT       0.0965
     21 H6         23.5939   41.7454   16.8035 H           1 HNT       0.0612
     22 H7         26.8961   41.7074   19.4198 H           1 HNT       0.0619
     23 H8         28.2761   42.6109   17.7000 H           1 HNT       0.0555
     24 H9         28.0680   44.1167   10.7757 H           1 HNT       0.2097
     25 H10        28.9152   43.7074   12.7546 H           1 HNT       0.0615
     26 H11        27.7427   45.0341   12.8626 H           1 HNT       0.0615
     27 H12        25.2565   43.5617   12.8253 H           1 HNT       0.2032
     28 H13        25.6311   44.5661   14.0924 H           1 HNT       0.2032
@<TRIPOS>BOND
     1     2     1   1
     2     1    11   1
     3     2    10   1
     4    15     2   1
     5    12     3   2
     6    14     4   1
     7     4    15   1
     8     6     5  ar
     9     5    14  ar
    10     6     7  ar
    11     6    12   1
    12     7     8  ar
    13     8    11  ar
    14    10     9   1
    15    11    14  ar
    16    12    13   2
    17     1    16   1
    18     1    17   1
    19     2    18   1
    20     4    19   1
    21     4    20   1
    22     5    21   1
    23     7    22   1
    24     8    23   1
    25     9    24   1
    26    10    25   1
    27    10    26   1
    28    15    27   1
    29    15    28   1
@<TRIPOS>SUBSTRUCTURE
     1  HNT      1

