@<TRIPOS>MOLECULE
2g70_ligand_012
    28    29
SMALL
GAST_HUCK
****
This file was generated by PARSER (from files_GN.cpp)

@<TRIPOS>ATOM
      1 C1         28.2310   51.9429   21.3486 C.3         1 HNT       0.0268
      2 C2         29.2502   50.8512   21.7833 C.3         1 HNT       0.0116
      3 O2         25.8210   49.8933   15.6472 O.2         1 HNT       0.1750
      4 C4         28.2785   49.2580   20.1060 C.3         1 HNT      -0.0003
      5 C5         27.0180   50.2065   18.1541 C.ar        1 HNT      -0.0189
      6 C6         26.3920   51.2624   17.4573 C.ar        1 HNT       0.1861
      7 C7         26.3971   52.5446   18.0606 C.ar        1 HNT      -0.0321
      8 C8         27.0295   52.7597   19.3034 C.ar        1 HNT      -0.0576
      9 O22        31.1619   49.8687   20.5466 O.3         1 HNT      -0.3893
     10 C22        30.6547   51.0604   21.1337 C.3         1 HNT       0.0887
     11 C8A        27.6492   51.7011   19.9903 C.ar        1 HNT      -0.0245
     12 N1         25.8025   51.0524   16.2446 N.2         1 HNT       0.3079
     13 O3         25.2335   51.9288   15.6310 O.2         1 HNT       0.1750
     14 C4A        27.6441   50.4054   19.4156 C.ar        1 HNT       0.0118
     15 N41        28.6118   49.5409   21.5166 N.4         1 HNT       0.2433
     16 H1         28.7039   52.9277   21.3932 H           1 HNT       0.0480
     17 H2         27.4007   51.9379   22.0628 H           1 HNT       0.0480
     18 H3         29.3803   50.9133   22.8734 H           1 HNT       0.0897
     19 H4         29.1819   48.9768   19.5728 H           1 HNT       0.0965
     20 H5         27.6050   48.4020   20.1008 H           1 HNT       0.0965
     21 H6         27.0147   49.2668   17.7584 H           1 HNT       0.0612
     22 H7         25.9522   53.3400   17.5958 H           1 HNT       0.0619
     23 H8         27.0195   53.7047   19.7028 H           1 HNT       0.0555
     24 H9         31.2896   49.2448   21.2944 H           1 HNT       0.2097
     25 H10        31.3596   51.3983   21.8921 H           1 HNT       0.0615
     26 H11        30.6284   51.8406   20.3509 H           1 HNT       0.0615
     27 H12        27.7184   49.5384   22.0115 H           1 HNT       0.2032
     28 H13        29.1917   48.7928   21.8923 H           1 HNT       0.2032
@<TRIPOS>BOND
     1     2     1   1
     2     1    11   1
     3     2    10   1
     4    15     2   1
     5    12     3   2
     6    14     4   1
     7     4    15   1
     8     6     5  ar
     9     5    14  ar
    10     6     7  ar
    11     6    12   1
    12     7     8  ar
    13     8    11  ar
    14    10     9   1
    15    11    14  ar
    16    12    13   2
    17     1    16   1
    18     1    17   1
    19     2    18   1
    20     4    19   1
    21     4    20   1
    22     5    21   1
    23     7    22   1
    24     8    23   1
    25     9    24   1
    26    10    25   1
    27    10    26   1
    28    15    27   1
    29    15    28   1
@<TRIPOS>SUBSTRUCTURE
     1  HNT      1

