@<TRIPOS>MOLECULE
2g70_ligand_009
    28    29
SMALL
GAST_HUCK
****
This file was generated by PARSER (from files_GN.cpp)

@<TRIPOS>ATOM
      1 C1         26.5419   43.3483   19.6975 C.3         1 HNT       0.0268
      2 C2         27.6706   44.3268   20.1456 C.3         1 HNT       0.0116
      3 O2         27.7356   42.1815   13.4092 O.2         1 HNT       0.1750
      4 C4         29.0072   43.7604   18.1117 C.3         1 HNT      -0.0003
      5 C5         27.7619   42.9131   16.1070 C.ar        1 HNT      -0.0189
      6 C6         26.6537   42.2900   15.4841 C.ar        1 HNT       0.1861
      7 C7         25.5296   41.9957   16.2919 C.ar        1 HNT      -0.0321
      8 C8         25.5014   42.3328   17.6567 C.ar        1 HNT      -0.0576
      9 O22        28.5273   46.6238   19.7838 O.3         1 HNT      -0.3893
     10 C22        27.3595   45.8061   19.7756 C.3         1 HNT       0.0887
     11 C8A        26.6065   42.9717   18.2594 C.ar        1 HNT      -0.0245
     12 N1         26.6823   41.9724   14.1546 N.2         1 HNT       0.3079
     13 O3         25.7519   41.4642   13.5879 O.2         1 HNT       0.1750
     14 C4A        27.7734   43.2101   17.4876 C.ar        1 HNT       0.0118
     15 N41        28.9548   43.8436   19.5905 N.4         1 HNT       0.2433
     16 H1         25.5717   43.8009   19.9229 H           1 HNT       0.0480
     17 H2         26.6109   42.4230   20.2717 H           1 HNT       0.0480
     18 H3         27.7670   44.2798   21.2340 H           1 HNT       0.0897
     19 H4         29.2006   44.7535   17.7032 H           1 HNT       0.0965
     20 H5         29.8572   43.1221   17.8529 H           1 HNT       0.0965
     21 H6         28.5846   43.1536   15.5521 H           1 HNT       0.0612
     22 H7         24.7099   41.5376   15.8887 H           1 HNT       0.0619
     23 H8         24.6651   42.1164   18.2078 H           1 HNT       0.0555
     24 H9         28.9181   46.5279   20.6797 H           1 HNT       0.2097
     25 H10        26.6358   46.2098   20.4862 H           1 HNT       0.0615
     26 H11        26.9232   45.8706   18.7773 H           1 HNT       0.0615
     27 H12        29.1023   42.9118   19.9859 H           1 HNT       0.2032
     28 H13        29.7143   44.4486   19.9149 H           1 HNT       0.2032
@<TRIPOS>BOND
     1     2     1   1
     2     1    11   1
     3     2    10   1
     4    15     2   1
     5    12     3   2
     6    14     4   1
     7     4    15   1
     8     6     5  ar
     9     5    14  ar
    10     6     7  ar
    11     6    12   1
    12     7     8  ar
    13     8    11  ar
    14    10     9   1
    15    11    14  ar
    16    12    13   2
    17     1    16   1
    18     1    17   1
    19     2    18   1
    20     4    19   1
    21     4    20   1
    22     5    21   1
    23     7    22   1
    24     8    23   1
    25     9    24   1
    26    10    25   1
    27    10    26   1
    28    15    27   1
    29    15    28   1
@<TRIPOS>SUBSTRUCTURE
     1  HNT      1

