@<TRIPOS>MOLECULE
2g70_ligand_003
    28    29
SMALL
GAST_HUCK
****
This file was generated by PARSER (from files_GN.cpp)

@<TRIPOS>ATOM
      1 C1         26.9360   42.3580   12.6308 C.3         1 HNT       0.0268
      2 C2         26.6013   43.7307   11.9894 C.3         1 HNT       0.0116
      3 O2         27.3017   43.5620   19.0083 O.2         1 HNT       0.1750
      4 C4         27.2586   44.9244   14.0803 C.3         1 HNT      -0.0003
      5 C5         27.2178   43.6328   16.2229 C.ar        1 HNT      -0.0189
      6 C6         27.1632   42.4300   16.9683 C.ar        1 HNT       0.1861
      7 C7         27.0577   41.2162   16.2475 C.ar        1 HNT      -0.0321
      8 C8         26.9967   41.2015   14.8447 C.ar        1 HNT      -0.0576
      9 O22        26.5908   45.0522    9.9548 O.3         1 HNT      -0.3893
     10 C22        26.8138   43.7386   10.4562 C.3         1 HNT       0.0887
     11 C8A        27.0330   42.4064   14.1136 C.ar        1 HNT      -0.0245
     12 N1         27.2089   42.4486   18.3323 N.2         1 HNT       0.3079
     13 O3         27.1639   41.4467   18.9974 O.2         1 HNT       0.1750
     14 C4A        27.1767   43.6342   14.8114 C.ar        1 HNT       0.0118
     15 N41        27.4474   44.7708   12.6194 N.4         1 HNT       0.2433
     16 H1         27.8896   41.9920   12.2446 H           1 HNT       0.0480
     17 H2         26.1527   41.6533   12.3426 H           1 HNT       0.0480
     18 H3         25.5478   43.9531   12.1903 H           1 HNT       0.0897
     19 H4         28.1018   45.5103   14.4511 H           1 HNT       0.0965
     20 H5         26.3468   45.4959   14.2659 H           1 HNT       0.0965
     21 H6         27.2936   44.5300   16.7100 H           1 HNT       0.0612
     22 H7         27.0243   40.3221   16.7391 H           1 HNT       0.0619
     23 H8         26.9194   40.3034   14.3597 H           1 HNT       0.0555
     24 H9         27.1181   45.1144    9.1275 H           1 HNT       0.2097
     25 H10        26.1131   43.0582    9.9669 H           1 HNT       0.0615
     26 H11        27.8359   43.4336   10.2145 H           1 HNT       0.0615
     27 H12        27.2575   45.6702   12.1823 H           1 HNT       0.2032
     28 H13        28.4224   44.5401   12.4241 H           1 HNT       0.2032
@<TRIPOS>BOND
     1     2     1   1
     2     1    11   1
     3     2    10   1
     4    15     2   1
     5    12     3   2
     6    14     4   1
     7     4    15   1
     8     6     5  ar
     9     5    14  ar
    10     6     7  ar
    11     6    12   1
    12     7     8  ar
    13     8    11  ar
    14    10     9   1
    15    11    14  ar
    16    12    13   2
    17     1    16   1
    18     1    17   1
    19     2    18   1
    20     4    19   1
    21     4    20   1
    22     5    21   1
    23     7    22   1
    24     8    23   1
    25     9    24   1
    26    10    25   1
    27    10    26   1
    28    15    27   1
    29    15    28   1
@<TRIPOS>SUBSTRUCTURE
     1  HNT      1

