@<TRIPOS>MOLECULE
2g70_ligand_021
    28    29
SMALL
GAST_HUCK
****
This file was generated by PARSER (from files_GN.cpp)

@<TRIPOS>ATOM
      1 C1         28.5748   45.5575   20.7228 C.3         1 HNT       0.0268
      2 C2         27.6730   45.8916   21.9535 C.3         1 HNT       0.0116
      3 O2         25.2685   41.0323   17.3989 O.2         1 HNT       0.1750
      4 C4         25.7195   44.8150   20.8087 C.3         1 HNT      -0.0003
      5 C5         26.1726   43.0749   19.0766 C.ar        1 HNT      -0.0189
      6 C6         27.0139   42.3912   18.1646 C.ar        1 HNT       0.1861
      7 C7         28.3694   42.7840   18.1100 C.ar        1 HNT      -0.0321
      8 C8         28.8749   43.8034   18.9383 C.ar        1 HNT      -0.0576
      9 O22        26.6502   44.4618   23.7428 O.3         1 HNT      -0.3893
     10 C22        27.8678   44.9192   23.1607 C.3         1 HNT       0.0887
     11 C8A        28.0331   44.4695   19.8550 C.ar        1 HNT      -0.0245
     12 N1         26.5196   41.3982   17.3705 N.2         1 HNT       0.3079
     13 O3         27.2008   40.7926   16.5885 O.2         1 HNT       0.1750
     14 C4A        26.6623   44.1151   19.8946 C.ar        1 HNT       0.0118
     15 N41        26.2801   46.0155   21.4701 N.4         1 HNT       0.2433
     16 H1         29.5775   45.2896   21.0663 H           1 HNT       0.0480
     17 H2         28.6744   46.4484   20.0969 H           1 HNT       0.0480
     18 H3         27.9646   46.8862   22.2942 H           1 HNT       0.0897
     19 H4         25.3718   44.1154   21.5711 H           1 HNT       0.0965
     20 H5         24.8457   45.1566   20.2489 H           1 HNT       0.0965
     21 H6         25.1855   42.8226   19.1420 H           1 HNT       0.0612
     22 H7         29.0156   42.3367   17.4602 H           1 HNT       0.0619
     23 H8         29.8625   44.0581   18.8718 H           1 HNT       0.0555
     24 H9         26.1693   45.2670   24.0144 H           1 HNT       0.2097
     25 H10        28.4297   45.4218   23.9535 H           1 HNT       0.0615
     26 H11        28.4386   44.0337   22.8642 H           1 HNT       0.0615
     27 H12        26.2686   46.7791   20.7948 H           1 HNT       0.2032
     28 H13        25.6470   46.2636   22.2299 H           1 HNT       0.2032
@<TRIPOS>BOND
     1     2     1   1
     2     1    11   1
     3     2    10   1
     4    15     2   1
     5    12     3   2
     6    14     4   1
     7     4    15   1
     8     6     5  ar
     9     5    14  ar
    10     6     7  ar
    11     6    12   1
    12     7     8  ar
    13     8    11  ar
    14    10     9   1
    15    11    14  ar
    16    12    13   2
    17     1    16   1
    18     1    17   1
    19     2    18   1
    20     4    19   1
    21     4    20   1
    22     5    21   1
    23     7    22   1
    24     8    23   1
    25     9    24   1
    26    10    25   1
    27    10    26   1
    28    15    27   1
    29    15    28   1
@<TRIPOS>SUBSTRUCTURE
     1  HNT      1

