@<TRIPOS>MOLECULE
2g70_ligand_018
    28    29
SMALL
GAST_HUCK
****
This file was generated by PARSER (from files_GN.cpp)

@<TRIPOS>ATOM
      1 C1         28.9130   51.1530   23.3424 C.3         1 HNT       0.0268
      2 C2         28.9271   50.8694   21.8120 C.3         1 HNT       0.0116
      3 O2         26.6559   57.2080   24.0288 O.2         1 HNT       0.1750
      4 C4         27.3538   52.8205   21.4708 C.3         1 HNT      -0.0003
      5 C5         27.4381   54.6633   23.1683 C.ar        1 HNT      -0.0189
      6 C6         27.8128   55.2140   24.4204 C.ar        1 HNT       0.1861
      7 C7         28.6234   54.4158   25.2656 C.ar        1 HNT      -0.0321
      8 C8         29.0107   53.1158   24.8938 C.ar        1 HNT      -0.0576
      9 O22        31.3826   51.2099   21.8288 O.3         1 HNT      -0.3893
     10 C22        30.1879   51.3986   21.0707 C.3         1 HNT       0.0887
     11 C8A        28.5823   52.5616   23.6684 C.ar        1 HNT      -0.0245
     12 N1         27.3978   56.4557   24.7939 N.2         1 HNT       0.3079
     13 O3         27.6579   56.9272   25.8695 O.2         1 HNT       0.1750
     14 C4A        27.7922   53.3481   22.7929 C.ar        1 HNT       0.0118
     15 N41        27.6679   51.3915   21.2171 N.4         1 HNT       0.2433
     16 H1         29.8758   50.8708   23.7664 H           1 HNT       0.0480
     17 H2         28.1540   50.5209   23.8103 H           1 HNT       0.0480
     18 H3         28.9122   49.7858   21.6786 H           1 HNT       0.0897
     19 H4         27.8183   53.4208   20.6837 H           1 HNT       0.0965
     20 H5         26.2681   52.9351   21.3847 H           1 HNT       0.0965
     21 H6         26.8779   55.2200   22.5215 H           1 HNT       0.0612
     22 H7         28.9393   54.7743   26.1731 H           1 HNT       0.0619
     23 H8         29.5921   52.5679   25.5364 H           1 HNT       0.0555
     24 H9         31.3570   50.2849   22.1596 H           1 HNT       0.2097
     25 H10        30.0966   52.4672   20.8578 H           1 HNT       0.0615
     26 H11        30.3021   50.8685   20.1203 H           1 HNT       0.0615
     27 H12        26.9027   50.8301   21.5914 H           1 HNT       0.2032
     28 H13        27.6969   51.2425   20.2046 H           1 HNT       0.2032
@<TRIPOS>BOND
     1     2     1   1
     2     1    11   1
     3     2    10   1
     4    15     2   1
     5    12     3   2
     6    14     4   1
     7     4    15   1
     8     6     5  ar
     9     5    14  ar
    10     6     7  ar
    11     6    12   1
    12     7     8  ar
    13     8    11  ar
    14    10     9   1
    15    11    14  ar
    16    12    13   2
    17     1    16   1
    18     1    17   1
    19     2    18   1
    20     4    19   1
    21     4    20   1
    22     5    21   1
    23     7    22   1
    24     8    23   1
    25     9    24   1
    26    10    25   1
    27    10    26   1
    28    15    27   1
    29    15    28   1
@<TRIPOS>SUBSTRUCTURE
     1  HNT      1

