@<TRIPOS>MOLECULE
2g70_ligand_022
    28    29
SMALL
GAST_HUCK
****
This file was generated by PARSER (from files_GN.cpp)

@<TRIPOS>ATOM
      1 C1         27.0336   43.0968   15.0098 C.3         1 HNT       0.0268
      2 C2         26.4001   41.6818   15.1638 C.3         1 HNT       0.0116
      3 O2         28.6263   45.0259   21.0237 O.2         1 HNT       0.1750
      4 C4         26.1537   42.0538   17.6370 C.3         1 HNT      -0.0003
      5 C5         27.5849   43.8069   18.7314 C.ar        1 HNT      -0.0189
      6 C6         28.4588   44.9194   18.6954 C.ar        1 HNT       0.1861
      7 C7         28.8424   45.4017   17.4174 C.ar        1 HNT      -0.0321
      8 C8         28.3545   44.8196   16.2373 C.ar        1 HNT      -0.0576
      9 O22        25.7067   42.0358   12.7662 O.3         1 HNT      -0.3893
     10 C22        25.6744   41.1553   13.8886 C.3         1 HNT       0.0887
     11 C8A        27.5035   43.7002   16.2869 C.ar        1 HNT      -0.0245
     12 N1         28.9041   45.4987   19.8431 N.2         1 HNT       0.3079
     13 O3         29.5939   46.4853   19.8521 O.2         1 HNT       0.1750
     14 C4A        27.0943   43.2028   17.5473 C.ar        1 HNT       0.0118
     15 N41        25.5062   41.6892   16.3518 N.4         1 HNT       0.2433
     16 H1         26.3013   43.7814   14.5726 H           1 HNT       0.0480
     17 H2         27.8807   43.0118   14.3201 H           1 HNT       0.0480
     18 H3         27.2117   40.9825   15.3836 H           1 HNT       0.0897
     19 H4         25.3516   42.2962   18.3418 H           1 HNT       0.0965
     20 H5         26.6974   41.1887   18.0315 H           1 HNT       0.0965
     21 H6         27.2806   43.4337   19.6330 H           1 HNT       0.0612
     22 H7         29.4927   46.1773   17.3275 H           1 HNT       0.0619
     23 H8         28.6332   45.2167   15.3352 H           1 HNT       0.0555
     24 H9         26.6492   42.1345   12.5131 H           1 HNT       0.2097
     25 H10        24.6231   40.9619   14.0982 H           1 HNT       0.0615
     26 H11        26.1208   40.2101   13.5790 H           1 HNT       0.0615
     27 H12        25.0999   40.7566   16.4609 H           1 HNT       0.2032
     28 H13        24.7464   42.3545   16.1771 H           1 HNT       0.2032
@<TRIPOS>BOND
     1     2     1   1
     2     1    11   1
     3     2    10   1
     4    15     2   1
     5    12     3   2
     6    14     4   1
     7     4    15   1
     8     6     5  ar
     9     5    14  ar
    10     6     7  ar
    11     6    12   1
    12     7     8  ar
    13     8    11  ar
    14    10     9   1
    15    11    14  ar
    16    12    13   2
    17     1    16   1
    18     1    17   1
    19     2    18   1
    20     4    19   1
    21     4    20   1
    22     5    21   1
    23     7    22   1
    24     8    23   1
    25     9    24   1
    26    10    25   1
    27    10    26   1
    28    15    27   1
    29    15    28   1
@<TRIPOS>SUBSTRUCTURE
     1  HNT      1

