@<TRIPOS>MOLECULE
2g70_ligand_020
    28    29
SMALL
GAST_HUCK
****
This file was generated by PARSER (from files_GN.cpp)

@<TRIPOS>ATOM
      1 C1         29.1942   44.3612   19.2426 C.3         1 HNT       0.0268
      2 C2         27.8350   43.7207   18.8318 C.3         1 HNT       0.0116
      3 O2         27.6886   49.5589   22.8595 O.2         1 HNT       0.1750
      4 C4         26.6823   45.0471   20.6399 C.3         1 HNT      -0.0003
      5 C5         27.7550   47.1820   21.3755 C.ar        1 HNT      -0.0189
      6 C6         28.8229   48.1109   21.4136 C.ar        1 HNT       0.1861
      7 C7         30.0163   47.7597   20.7379 C.ar        1 HNT      -0.0321
      8 C8         30.1439   46.5274   20.0750 C.ar        1 HNT      -0.0576
      9 O22        28.0343   44.4760   16.4876 O.3         1 HNT      -0.3893
     10 C22        27.1431   44.3539   17.5908 C.3         1 HNT       0.0887
     11 C8A        29.0549   45.6358   19.9956 C.ar        1 HNT      -0.0245
     12 N1         28.7024   49.2953   22.0789 N.2         1 HNT       0.3079
     13 O3         29.4989   50.1890   21.9591 O.2         1 HNT       0.1750
     14 C4A        27.8546   45.9593   20.6766 C.ar        1 HNT       0.0118
     15 N41        26.9401   43.7285   20.0136 N.4         1 HNT       0.2433
     16 H1         29.8075   44.5096   18.3506 H           1 HNT       0.0480
     17 H2         29.7315   43.6623   19.8891 H           1 HNT       0.0480
     18 H3         28.0264   42.6717   18.5876 H           1 HNT       0.0897
     19 H4         25.8703   45.5422   20.1081 H           1 HNT       0.0965
     20 H5         26.3425   44.8560   21.6601 H           1 HNT       0.0965
     21 H6         26.8711   47.4071   21.8380 H           1 HNT       0.0612
     22 H7         30.8220   48.3887   20.7537 H           1 HNT       0.0619
     23 H8         31.0332   46.2916   19.6285 H           1 HNT       0.0555
     24 H9         27.5111   44.9192   15.7870 H           1 HNT       0.2097
     25 H10        26.7525   45.3442   17.8259 H           1 HNT       0.0615
     26 H11        26.3089   43.7192   17.2831 H           1 HNT       0.0615
     27 H12        27.3680   43.1432   20.7307 H           1 HNT       0.2032
     28 H13        26.0433   43.3069   19.7587 H           1 HNT       0.2032
@<TRIPOS>BOND
     1     2     1   1
     2     1    11   1
     3     2    10   1
     4    15     2   1
     5    12     3   2
     6    14     4   1
     7     4    15   1
     8     6     5  ar
     9     5    14  ar
    10     6     7  ar
    11     6    12   1
    12     7     8  ar
    13     8    11  ar
    14    10     9   1
    15    11    14  ar
    16    12    13   2
    17     1    16   1
    18     1    17   1
    19     2    18   1
    20     4    19   1
    21     4    20   1
    22     5    21   1
    23     7    22   1
    24     8    23   1
    25     9    24   1
    26    10    25   1
    27    10    26   1
    28    15    27   1
    29    15    28   1
@<TRIPOS>SUBSTRUCTURE
     1  HNT      1

