@<TRIPOS>MOLECULE
2g70_ligand_024
    28    29
SMALL
GAST_HUCK
****
This file was generated by PARSER (from files_GN.cpp)

@<TRIPOS>ATOM
      1 C1         29.3001   51.1239   22.0049 C.3         1 HNT       0.0268
      2 C2         28.2930   51.9296   22.8760 C.3         1 HNT       0.0116
      3 O2         28.3749   53.3662   15.9861 O.2         1 HNT       0.1750
      4 C4         27.0420   52.6686   20.8601 C.3         1 HNT      -0.0003
      5 C5         28.2356   52.6262   18.6642 C.ar        1 HNT      -0.0189
      6 C6         29.2997   52.2403   17.8110 C.ar        1 HNT       0.1861
      7 C7         30.3580   51.4904   18.3813 C.ar        1 HNT      -0.0321
      8 C8         30.3418   51.1195   19.7355 C.ar        1 HNT      -0.0576
      9 O22        27.5289   50.0486   24.2882 O.3         1 HNT      -0.3893
     10 C22        28.1291   51.3397   24.2926 C.3         1 HNT       0.0887
     11 C8A        29.2791   51.5119   20.5721 C.ar        1 HNT      -0.0245
     12 N1         29.3105   52.6103   16.4975 N.2         1 HNT       0.3079
     13 O3         30.2233   52.3549   15.7538 O.2         1 HNT       0.1750
     14 C4A        28.2026   52.2586   20.0237 C.ar        1 HNT       0.0118
     15 N41        26.9919   52.0132   22.1875 N.4         1 HNT       0.2433
     16 H1         29.0811   50.0565   22.0685 H           1 HNT       0.0480
     17 H2         30.3020   51.2898   22.4108 H           1 HNT       0.0480
     18 H3         28.6808   52.9472   22.9960 H           1 HNT       0.0897
     19 H4         26.1112   52.4179   20.3444 H           1 HNT       0.0965
     20 H5         27.0677   53.7544   20.9955 H           1 HNT       0.0965
     21 H6         27.4624   53.1793   18.2886 H           1 HNT       0.0612
     22 H7         31.1583   51.2062   17.8126 H           1 HNT       0.0619
     23 H8         31.1156   50.5624   20.1020 H           1 HNT       0.0555
     24 H9         26.6353   50.1737   24.6806 H           1 HNT       0.2097
     25 H10        27.5137   52.0198   24.8916 H           1 HNT       0.0615
     26 H11        29.1076   51.2459   24.7686 H           1 HNT       0.0615
     27 H12        26.3319   52.5323   22.7778 H           1 HNT       0.2032
     28 H13        26.6389   51.0593   22.0622 H           1 HNT       0.2032
@<TRIPOS>BOND
     1     2     1   1
     2     1    11   1
     3     2    10   1
     4    15     2   1
     5    12     3   2
     6    14     4   1
     7     4    15   1
     8     6     5  ar
     9     5    14  ar
    10     6     7  ar
    11     6    12   1
    12     7     8  ar
    13     8    11  ar
    14    10     9   1
    15    11    14  ar
    16    12    13   2
    17     1    16   1
    18     1    17   1
    19     2    18   1
    20     4    19   1
    21     4    20   1
    22     5    21   1
    23     7    22   1
    24     8    23   1
    25     9    24   1
    26    10    25   1
    27    10    26   1
    28    15    27   1
    29    15    28   1
@<TRIPOS>SUBSTRUCTURE
     1  HNT      1

