@<TRIPOS>MOLECULE
2g70_ligand_006
    28    29
SMALL
GAST_HUCK
****
This file was generated by PARSER (from files_GN.cpp)

@<TRIPOS>ATOM
      1 C1         29.2574   50.7334   19.5259 C.3         1 HNT       0.0268
      2 C2         27.9473   50.8004   18.6898 C.3         1 HNT       0.0116
      3 O2         28.9864   55.8204   23.5891 O.2         1 HNT       0.1750
      4 C4         26.9571   52.4238   20.3232 C.3         1 HNT      -0.0003
      5 C5         28.5144   53.7215   21.7971 C.ar        1 HNT      -0.0189
      6 C6         29.7867   53.9878   22.3676 C.ar        1 HNT       0.1861
      7 C7         30.8575   53.1377   21.9972 C.ar        1 HNT      -0.0321
      8 C8         30.6703   52.0847   21.0883 C.ar        1 HNT      -0.0576
      9 O22        26.8232   51.7523   16.7217 O.3         1 HNT      -0.3893
     10 C22        28.0523   51.7340   17.4485 C.3         1 HNT       0.0887
     11 C8A        29.4116   51.8467   20.5017 C.ar        1 HNT      -0.0245
     12 N1         29.9631   55.0282   23.2341 N.2         1 HNT       0.3079
     13 O3         31.0317   55.2908   23.7222 O.2         1 HNT       0.1750
     14 C4A        28.3138   52.6576   20.8879 C.ar        1 HNT       0.0118
     15 N41        26.8241   51.1396   19.5966 N.4         1 HNT       0.2433
     16 H1         30.1142   50.7203   18.8461 H           1 HNT       0.0480
     17 H2         29.2747   49.8001   20.0892 H           1 HNT       0.0480
     18 H3         27.7404   49.7954   18.3113 H           1 HNT       0.0897
     19 H4         26.7063   53.2474   19.6524 H           1 HNT       0.0965
     20 H5         26.2190   52.4082   21.1334 H           1 HNT       0.0965
     21 H6         27.7144   54.3105   22.0458 H           1 HNT       0.0612
     22 H7         31.7941   53.2855   22.3861 H           1 HNT       0.0619
     23 H8         31.4691   51.4944   20.8449 H           1 HNT       0.0555
     24 H9         26.9786   52.3461   15.9569 H           1 HNT       0.2097
     25 H10        28.8393   51.3733   16.7783 H           1 HNT       0.0615
     26 H11        28.3025   52.7548   17.7467 H           1 HNT       0.0615
     27 H12        26.7690   50.3977   20.2999 H           1 HNT       0.2032
     28 H13        25.9407   51.1389   19.0755 H           1 HNT       0.2032
@<TRIPOS>BOND
     1     2     1   1
     2     1    11   1
     3     2    10   1
     4    15     2   1
     5    12     3   2
     6    14     4   1
     7     4    15   1
     8     6     5  ar
     9     5    14  ar
    10     6     7  ar
    11     6    12   1
    12     7     8  ar
    13     8    11  ar
    14    10     9   1
    15    11    14  ar
    16    12    13   2
    17     1    16   1
    18     1    17   1
    19     2    18   1
    20     4    19   1
    21     4    20   1
    22     5    21   1
    23     7    22   1
    24     8    23   1
    25     9    24   1
    26    10    25   1
    27    10    26   1
    28    15    27   1
    29    15    28   1
@<TRIPOS>SUBSTRUCTURE
     1  HNT      1

