@<TRIPOS>MOLECULE
2g70_ligand_040
    28    29
SMALL
GAST_HUCK
****
This file was generated by PARSER (from files_GN.cpp)

@<TRIPOS>ATOM
      1 C1         27.7968   46.8989   19.5636 C.3         1 HNT       0.0268
      2 C2         27.8255   46.5145   21.0634 C.3         1 HNT       0.0116
      3 O2         27.4390   53.3996   19.4474 O.2         1 HNT       0.1750
      4 C4         28.5135   48.8842   21.6275 C.3         1 HNT      -0.0003
      5 C5         27.7855   50.6884   20.0518 C.ar        1 HNT      -0.0189
      6 C6         27.2116   51.1507   18.8406 C.ar        1 HNT       0.1861
      7 C7         26.8350   50.1776   17.8841 C.ar        1 HNT      -0.0321
      8 C8         27.0301   48.8076   18.1220 C.ar        1 HNT      -0.0576
      9 O22        26.3980   45.4928   22.7735 O.3         1 HNT      -0.3893
     10 C22        26.4165   46.4524   21.7124 C.3         1 HNT       0.0887
     11 C8A        27.5895   48.3536   19.3372 C.ar        1 HNT      -0.0245
     12 N1         27.0502   52.4817   18.6035 N.2         1 HNT       0.3079
     13 O3         26.5446   52.8999   17.5928 O.2         1 HNT       0.1750
     14 C4A        27.9724   49.3131   20.3088 C.ar        1 HNT       0.0118
     15 N41        28.7574   47.4265   21.7628 N.4         1 HNT       0.2433
     16 H1         27.0329   46.3127   19.0482 H           1 HNT       0.0480
     17 H2         28.7591   46.6239   19.1288 H           1 HNT       0.0480
     18 H3         28.2498   45.5140   21.1321 H           1 HNT       0.0897
     19 H4         27.8210   49.2050   22.4124 H           1 HNT       0.0965
     20 H5         29.4695   49.3919   21.8039 H           1 HNT       0.0965
     21 H6         28.0534   51.3638   20.7738 H           1 HNT       0.0612
     22 H7         26.4162   50.4595   16.9928 H           1 HNT       0.0619
     23 H8         26.7761   48.1421   17.3889 H           1 HNT       0.0555
     24 H9         25.4303   45.3650   22.9405 H           1 HNT       0.2097
     25 H10        25.6615   46.1484   20.9736 H           1 HNT       0.0615
     26 H11        26.1079   47.4188   22.1131 H           1 HNT       0.0615
     27 H12        29.6822   47.2475   21.3767 H           1 HNT       0.2032
     28 H13        28.7754   47.1945   22.7563 H           1 HNT       0.2032
@<TRIPOS>BOND
     1     2     1   1
     2     1    11   1
     3     2    10   1
     4    15     2   1
     5    12     3   2
     6    14     4   1
     7     4    15   1
     8     6     5  ar
     9     5    14  ar
    10     6     7  ar
    11     6    12   1
    12     7     8  ar
    13     8    11  ar
    14    10     9   1
    15    11    14  ar
    16    12    13   2
    17     1    16   1
    18     1    17   1
    19     2    18   1
    20     4    19   1
    21     4    20   1
    22     5    21   1
    23     7    22   1
    24     8    23   1
    25     9    24   1
    26    10    25   1
    27    10    26   1
    28    15    27   1
    29    15    28   1
@<TRIPOS>SUBSTRUCTURE
     1  HNT      1

