@<TRIPOS>MOLECULE
2g70_ligand_011
    28    29
SMALL
GAST_HUCK
****
This file was generated by PARSER (from files_GN.cpp)

@<TRIPOS>ATOM
      1 C1         26.7438   42.6616   14.9645 C.3         1 HNT       0.0268
      2 C2         26.3955   43.5191   13.7107 C.3         1 HNT       0.0116
      3 O2         27.8993   47.0233   19.6582 O.2         1 HNT       0.1750
      4 C4         27.2738   45.5771   14.8035 C.3         1 HNT      -0.0003
      5 C5         27.3958   45.6207   17.2959 C.ar        1 HNT      -0.0189
      6 C6         27.4001   45.0093   18.5716 C.ar        1 HNT       0.1861
      7 C7         27.1855   43.6108   18.6263 C.ar        1 HNT      -0.0321
      8 C8         26.9851   42.8580   17.4578 C.ar        1 HNT      -0.0576
      9 O22        27.7317   42.4198   11.9208 O.3         1 HNT      -0.3893
     10 C22        26.4169   42.7090   12.3894 C.3         1 HNT       0.0887
     11 C8A        26.9911   43.4779   16.1884 C.ar        1 HNT      -0.0245
     12 N1         27.6101   45.7509   19.6997 N.2         1 HNT       0.3079
     13 O3         27.5667   45.2829   20.8034 O.2         1 HNT       0.1750
     14 C4A        27.2221   44.8737   16.1112 C.ar        1 HNT       0.0118
     15 N41        27.3158   44.6767   13.6285 N.4         1 HNT       0.2433
     16 H1         27.6322   42.0585   14.7712 H           1 HNT       0.0480
     17 H2         25.9055   41.9826   15.1469 H           1 HNT       0.0480
     18 H3         25.3779   43.9049   13.8364 H           1 HNT       0.0897
     19 H4         28.1693   46.1972   14.7571 H           1 HNT       0.0965
     20 H5         26.4004   46.2299   14.7186 H           1 HNT       0.0965
     21 H6         27.5239   46.6322   17.2190 H           1 HNT       0.0612
     22 H7         27.1772   43.1230   19.5263 H           1 HNT       0.0619
     23 H8         26.8263   41.8496   17.5370 H           1 HNT       0.0555
     24 H9         28.1429   43.2835   11.6919 H           1 HNT       0.2097
     25 H10        25.8746   43.2600   11.6159 H           1 HNT       0.0615
     26 H11        25.8997   41.7601   12.5351 H           1 HNT       0.0615
     27 H12        27.1002   45.2239   12.7957 H           1 HNT       0.2032
     28 H13        28.2710   44.3199   13.5403 H           1 HNT       0.2032
@<TRIPOS>BOND
     1     2     1   1
     2     1    11   1
     3     2    10   1
     4    15     2   1
     5    12     3   2
     6    14     4   1
     7     4    15   1
     8     6     5  ar
     9     5    14  ar
    10     6     7  ar
    11     6    12   1
    12     7     8  ar
    13     8    11  ar
    14    10     9   1
    15    11    14  ar
    16    12    13   2
    17     1    16   1
    18     1    17   1
    19     2    18   1
    20     4    19   1
    21     4    20   1
    22     5    21   1
    23     7    22   1
    24     8    23   1
    25     9    24   1
    26    10    25   1
    27    10    26   1
    28    15    27   1
    29    15    28   1
@<TRIPOS>SUBSTRUCTURE
     1  HNT      1

