@<TRIPOS>MOLECULE
2g70_ligand_010
    28    29
SMALL
GAST_HUCK
****
This file was generated by PARSER (from files_GN.cpp)

@<TRIPOS>ATOM
      1 C1         28.2233   51.7337   17.4508 C.3         1 HNT       0.0268
      2 C2         26.7606   51.3085   17.7755 C.3         1 HNT       0.0116
      3 O2         30.8683   53.2632   23.2088 O.2         1 HNT       0.1750
      4 C4         26.9342   52.3305   20.0510 C.3         1 HNT      -0.0003
      5 C5         29.2116   52.7036   21.0204 C.ar        1 HNT      -0.0189
      6 C6         30.6220   52.7949   20.9275 C.ar        1 HNT       0.1861
      7 C7         31.2048   52.5577   19.6589 C.ar        1 HNT      -0.0321
      8 C8         30.4251   52.2006   18.5465 C.ar        1 HNT      -0.0576
      9 O22        24.7922   52.1174   16.4426 O.3         1 HNT      -0.3893
     10 C22        25.8609   51.1750   16.5025 C.3         1 HNT       0.0887
     11 C8A        29.0233   52.1012   18.6529 C.ar        1 HNT      -0.0245
     12 N1         31.3840   53.0924   22.0210 N.2         1 HNT       0.3079
     13 O3         32.5847   53.1630   21.9770 O.2         1 HNT       0.1750
     14 C4A        28.4103   52.3864   19.8997 C.ar        1 HNT       0.0118
     15 N41        26.2008   52.2592   18.7671 N.4         1 HNT       0.2433
     16 H1         28.2210   52.5947   16.7772 H           1 HNT       0.0480
     17 H2         28.7079   50.9015   16.9318 H           1 HNT       0.0480
     18 H3         26.8024   50.3226   18.2544 H           1 HNT       0.0897
     19 H4         26.5893   53.2291   20.5686 H           1 HNT       0.0965
     20 H5         26.6711   51.4644   20.6631 H           1 HNT       0.0965
     21 H6         28.7515   52.8806   21.9165 H           1 HNT       0.0612
     22 H7         32.2135   52.6354   19.5307 H           1 HNT       0.0619
     23 H8         30.8894   52.0042   17.6562 H           1 HNT       0.0555
     24 H9         24.2102   51.8745   17.1928 H           1 HNT       0.2097
     25 H10        25.4143   50.1792   16.4678 H           1 HNT       0.0615
     26 H11        26.4475   51.2923   15.5902 H           1 HNT       0.0615
     27 H12        25.2402   51.9859   18.9717 H           1 HNT       0.2032
     28 H13        26.1912   53.1930   18.3516 H           1 HNT       0.2032
@<TRIPOS>BOND
     1     2     1   1
     2     1    11   1
     3     2    10   1
     4    15     2   1
     5    12     3   2
     6    14     4   1
     7     4    15   1
     8     6     5  ar
     9     5    14  ar
    10     6     7  ar
    11     6    12   1
    12     7     8  ar
    13     8    11  ar
    14    10     9   1
    15    11    14  ar
    16    12    13   2
    17     1    16   1
    18     1    17   1
    19     2    18   1
    20     4    19   1
    21     4    20   1
    22     5    21   1
    23     7    22   1
    24     8    23   1
    25     9    24   1
    26    10    25   1
    27    10    26   1
    28    15    27   1
    29    15    28   1
@<TRIPOS>SUBSTRUCTURE
     1  HNT      1

