@<TRIPOS>MOLECULE
2g70_ligand_037
    28    29
SMALL
GAST_HUCK
****
This file was generated by PARSER (from files_GN.cpp)

@<TRIPOS>ATOM
      1 C1         26.3538   46.4945   21.8597 C.3         1 HNT       0.0268
      2 C2         26.5786   44.9620   21.9496 C.3         1 HNT       0.0116
      3 O2         32.1196   48.9287   20.1409 O.2         1 HNT       0.1750
      4 C4         28.6656   45.1747   20.5755 C.3         1 HNT      -0.0003
      5 C5         29.8479   47.3811   20.6240 C.ar        1 HNT      -0.0189
      6 C6         29.9229   48.7671   20.9056 C.ar        1 HNT       0.1861
      7 C7         28.7961   49.3789   21.5072 C.ar        1 HNT      -0.0321
      8 C8         27.6538   48.6326   21.8268 C.ar        1 HNT      -0.0576
      9 O22        27.5925   45.4296   24.2067 O.3         1 HNT      -0.3893
     10 C22        27.1940   44.4248   23.2814 C.3         1 HNT       0.0887
     11 C8A        27.5866   47.2551   21.5341 C.ar        1 HNT      -0.0245
     12 N1         31.0476   49.4847   20.6320 N.2         1 HNT       0.3079
     13 O3         31.1352   50.6648   20.8499 O.2         1 HNT       0.1750
     14 C4A        28.6893   46.6254   20.9038 C.ar        1 HNT       0.0118
     15 N41        27.3478   44.5249   20.7630 N.4         1 HNT       0.2433
     16 H1         25.9068   46.8456   22.7921 H           1 HNT       0.0480
     17 H2         25.6355   46.6910   21.0638 H           1 HNT       0.0480
     18 H3         25.5929   44.5008   21.8466 H           1 HNT       0.0897
     19 H4         29.4009   44.6598   21.1951 H           1 HNT       0.0965
     20 H5         28.9511   45.0334   19.5303 H           1 HNT       0.0965
     21 H6         30.6512   46.9012   20.2105 H           1 HNT       0.0612
     22 H7         28.8060   50.3742   21.7405 H           1 HNT       0.0619
     23 H8         26.8766   49.1032   22.2972 H           1 HNT       0.0555
     24 H9         28.3903   45.8448   23.8194 H           1 HNT       0.2097
     25 H10        28.0621   43.7916   23.0873 H           1 HNT       0.0615
     26 H11        26.4537   43.8029   23.7859 H           1 HNT       0.0615
     27 H12        26.7799   44.7110   19.9322 H           1 HNT       0.2032
     28 H13        27.4864   43.5184   20.8610 H           1 HNT       0.2032
@<TRIPOS>BOND
     1     2     1   1
     2     1    11   1
     3     2    10   1
     4    15     2   1
     5    12     3   2
     6    14     4   1
     7     4    15   1
     8     6     5  ar
     9     5    14  ar
    10     6     7  ar
    11     6    12   1
    12     7     8  ar
    13     8    11  ar
    14    10     9   1
    15    11    14  ar
    16    12    13   2
    17     1    16   1
    18     1    17   1
    19     2    18   1
    20     4    19   1
    21     4    20   1
    22     5    21   1
    23     7    22   1
    24     8    23   1
    25     9    24   1
    26    10    25   1
    27    10    26   1
    28    15    27   1
    29    15    28   1
@<TRIPOS>SUBSTRUCTURE
     1  HNT      1

