@<TRIPOS>MOLECULE
2g70_ligand_007
    28    29
SMALL
GAST_HUCK
****
This file was generated by PARSER (from files_GN.cpp)

@<TRIPOS>ATOM
      1 C1         27.2291   41.1533   17.4214 C.3         1 HNT       0.0268
      2 C2         27.3626   42.0029   18.7193 C.3         1 HNT       0.0116
      3 O2         27.9009   45.4366   12.5680 O.2         1 HNT       0.1750
      4 C4         28.3791   43.8861   17.4237 C.3         1 HNT      -0.0003
      5 C5         27.8951   44.0118   14.9732 C.ar        1 HNT      -0.0189
      6 C6         27.4191   43.4758   13.7518 C.ar        1 HNT       0.1861
      7 C7         26.9181   42.1517   13.7677 C.ar        1 HNT      -0.0321
      8 C8         26.8747   41.4036   14.9560 C.ar        1 HNT      -0.0576
      9 O22        26.2073   43.8404   19.9432 O.3         1 HNT      -0.3893
     10 C22        26.0257   42.7021   19.1051 C.3         1 HNT       0.0887
     11 C8A        27.3210   41.9585   16.1721 C.ar        1 HNT      -0.0245
     12 N1         27.4361   44.2151   12.6046 N.2         1 HNT       0.3079
     13 O3         27.0279   43.7989   11.5519 O.2         1 HNT       0.1750
     14 C4A        27.8681   43.2658   16.1716 C.ar        1 HNT       0.0118
     15 N41        28.4937   42.9462   18.5609 N.4         1 HNT       0.2433
     16 H1         26.2760   40.6171   17.4471 H           1 HNT       0.0480
     17 H2         28.0239   40.4047   17.4030 H           1 HNT       0.0480
     18 H3         27.6260   41.3341   19.5435 H           1 HNT       0.0897
     19 H4         27.7194   44.7082   17.7061 H           1 HNT       0.0965
     20 H5         29.3731   44.3021   17.2521 H           1 HNT       0.0965
     21 H6         28.2695   44.9634   14.9957 H           1 HNT       0.0612
     22 H7         26.5636   41.7210   12.9105 H           1 HNT       0.0619
     23 H8         26.4974   40.4545   14.9289 H           1 HNT       0.0555
     24 H9         26.5794   43.4853   20.7742 H           1 HNT       0.2097
     25 H10        25.3775   41.9921   19.6232 H           1 HNT       0.0615
     26 H11        25.4976   43.0338   18.2119 H           1 HNT       0.0615
     27 H12        29.3432   42.3877   18.4371 H           1 HNT       0.2032
     28 H13        28.5963   43.4848   19.4214 H           1 HNT       0.2032
@<TRIPOS>BOND
     1     2     1   1
     2     1    11   1
     3     2    10   1
     4    15     2   1
     5    12     3   2
     6    14     4   1
     7     4    15   1
     8     6     5  ar
     9     5    14  ar
    10     6     7  ar
    11     6    12   1
    12     7     8  ar
    13     8    11  ar
    14    10     9   1
    15    11    14  ar
    16    12    13   2
    17     1    16   1
    18     1    17   1
    19     2    18   1
    20     4    19   1
    21     4    20   1
    22     5    21   1
    23     7    22   1
    24     8    23   1
    25     9    24   1
    26    10    25   1
    27    10    26   1
    28    15    27   1
    29    15    28   1
@<TRIPOS>SUBSTRUCTURE
     1  HNT      1

