@<TRIPOS>MOLECULE
2g70_ligand_017
    28    29
SMALL
GAST_HUCK
****
This file was generated by PARSER (from files_GN.cpp)

@<TRIPOS>ATOM
      1 C1         26.5494   43.4991   19.8185 C.3         1 HNT       0.0268
      2 C2         27.1932   44.4476   20.8756 C.3         1 HNT       0.0116
      3 O2         28.6503   45.8543   14.1444 O.2         1 HNT       0.1750
      4 C4         28.9942   45.0435   19.2186 C.3         1 HNT      -0.0003
      5 C5         28.3257   44.9943   16.7920 C.ar        1 HNT      -0.0189
      6 C6         27.5090   44.5568   15.7191 C.ar        1 HNT       0.1861
      7 C7         26.4561   43.6635   16.0249 C.ar        1 HNT      -0.0321
      8 C8         26.1737   43.2946   17.3513 C.ar        1 HNT      -0.0576
      9 O22        26.4922   46.3316   22.3452 O.3         1 HNT      -0.3893
     10 C22        26.5073   45.8442   21.0041 C.3         1 HNT       0.0887
     11 C8A        26.9409   43.8071   18.4181 C.ar        1 HNT      -0.0245
     12 N1         27.7223   44.9847   14.4396 N.2         1 HNT       0.3079
     13 O3         27.0451   44.6359   13.5097 O.2         1 HNT       0.1750
     14 C4A        28.0759   44.6054   18.1292 C.ar        1 HNT       0.0118
     15 N41        28.6421   44.5430   20.5753 N.4         1 HNT       0.2433
     16 H1         25.4623   43.5506   19.9192 H           1 HNT       0.0480
     17 H2         26.8439   42.4667   20.0248 H           1 HNT       0.0480
     18 H3         27.1008   43.9579   21.8448 H           1 HNT       0.0897
     19 H4         29.0352   46.1348   19.2394 H           1 HNT       0.0965
     20 H5         30.0003   44.6810   18.9979 H           1 HNT       0.0965
     21 H6         29.1157   45.6191   16.6055 H           1 HNT       0.0612
     22 H7         25.8547   43.2925   15.2800 H           1 HNT       0.0619
     23 H8         25.3815   42.6730   17.5347 H           1 HNT       0.0555
     24 H9         25.5566   46.2403   22.6483 H           1 HNT       0.2097
     25 H10        25.4709   45.8057   20.6595 H           1 HNT       0.0615
     26 H11        27.0244   46.5859   20.3983 H           1 HNT       0.0615
     27 H12        29.0235   43.5976   20.6722 H           1 HNT       0.2032
     28 H13        29.0939   45.1375   21.2766 H           1 HNT       0.2032
@<TRIPOS>BOND
     1     2     1   1
     2     1    11   1
     3     2    10   1
     4    15     2   1
     5    12     3   2
     6    14     4   1
     7     4    15   1
     8     6     5  ar
     9     5    14  ar
    10     6     7  ar
    11     6    12   1
    12     7     8  ar
    13     8    11  ar
    14    10     9   1
    15    11    14  ar
    16    12    13   2
    17     1    16   1
    18     1    17   1
    19     2    18   1
    20     4    19   1
    21     4    20   1
    22     5    21   1
    23     7    22   1
    24     8    23   1
    25     9    24   1
    26    10    25   1
    27    10    26   1
    28    15    27   1
    29    15    28   1
@<TRIPOS>SUBSTRUCTURE
     1  HNT      1

