@<TRIPOS>MOLECULE
2g70_ligand_023
    28    29
SMALL
GAST_HUCK
****
This file was generated by PARSER (from files_GN.cpp)

@<TRIPOS>ATOM
      1 C1         28.5654   45.6042   20.3829 C.3         1 HNT       0.0268
      2 C2         27.2593   44.9066   19.9101 C.3         1 HNT       0.0116
      3 O2         33.4615   42.6558   17.2521 O.2         1 HNT       0.1750
      4 C4         28.5803   43.0619   18.8562 C.3         1 HNT      -0.0003
      5 C5         31.0299   43.4288   18.4256 C.ar        1 HNT      -0.0189
      6 C6         32.2236   44.1916   18.5093 C.ar        1 HNT       0.1861
      7 C7         32.1666   45.4147   19.2163 C.ar        1 HNT      -0.0321
      8 C8         30.9710   45.8651   19.7989 C.ar        1 HNT      -0.0576
      9 O22        26.3305   45.0705   22.2331 O.3         1 HNT      -0.3893
     10 C22        26.0474   45.1991   20.8411 C.3         1 HNT       0.0887
     11 C8A        29.7884   45.1081   19.7008 C.ar        1 HNT      -0.0245
     12 N1         33.3731   43.7897   17.8894 N.2         1 HNT       0.3079
     13 O3         34.3516   44.4895   17.8155 O.2         1 HNT       0.1750
     14 C4A        29.8199   43.8676   19.0114 C.ar        1 HNT       0.0118
     15 N41        27.4794   43.4502   19.7694 N.4         1 HNT       0.2433
     16 H1         28.7208   45.4463   21.4545 H           1 HNT       0.0480
     17 H2         28.4586   46.6799   20.2115 H           1 HNT       0.0480
     18 H3         27.0058   45.2933   18.9162 H           1 HNT       0.0897
     19 H4         28.7990   42.0109   19.0584 H           1 HNT       0.0965
     20 H5         28.2351   43.1423   17.8205 H           1 HNT       0.0965
     21 H6         31.0292   42.5562   17.8935 H           1 HNT       0.0612
     22 H7         32.9993   46.0033   19.3023 H           1 HNT       0.0619
     23 H8         30.9633   46.7588   20.2976 H           1 HNT       0.0555
     24 H9         25.5040   45.3693   22.6700 H           1 HNT       0.2097
     25 H10        25.2215   44.5259   20.6021 H           1 HNT       0.0615
     26 H11        25.7064   46.2225   20.6718 H           1 HNT       0.0615
     27 H12        26.6154   43.0227   19.4265 H           1 HNT       0.2032
     28 H13        27.6858   43.0636   20.6866 H           1 HNT       0.2032
@<TRIPOS>BOND
     1     2     1   1
     2     1    11   1
     3     2    10   1
     4    15     2   1
     5    12     3   2
     6    14     4   1
     7     4    15   1
     8     6     5  ar
     9     5    14  ar
    10     6     7  ar
    11     6    12   1
    12     7     8  ar
    13     8    11  ar
    14    10     9   1
    15    11    14  ar
    16    12    13   2
    17     1    16   1
    18     1    17   1
    19     2    18   1
    20     4    19   1
    21     4    20   1
    22     5    21   1
    23     7    22   1
    24     8    23   1
    25     9    24   1
    26    10    25   1
    27    10    26   1
    28    15    27   1
    29    15    28   1
@<TRIPOS>SUBSTRUCTURE
     1  HNT      1

