@<TRIPOS>MOLECULE
2g70_ligand_019
    28    29
SMALL
GAST_HUCK
****
This file was generated by PARSER (from files_GN.cpp)

@<TRIPOS>ATOM
      1 C1         28.3067   42.8470   18.6107 C.3         1 HNT       0.0268
      2 C2         29.5441   43.7119   18.2478 C.3         1 HNT       0.0116
      3 O2         24.3792   43.7640   13.5134 O.2         1 HNT       0.1750
      4 C4         28.1587   45.1033   16.7265 C.3         1 HNT      -0.0003
      5 C5         26.3042   43.8901   15.5500 C.ar        1 HNT      -0.0189
      6 C6         25.4124   42.7922   15.3784 C.ar        1 HNT       0.1861
      7 C7         25.5067   41.7239   16.2995 C.ar        1 HNT      -0.0321
      8 C8         26.4321   41.7497   17.3541 C.ar        1 HNT      -0.0576
      9 O22        31.8162   44.2732   18.8849 O.3         1 HNT      -0.3893
     10 C22        30.5758   43.7855   19.3925 C.3         1 HNT       0.0887
     11 C8A        27.3146   42.8418   17.5082 C.ar        1 HNT      -0.0245
     12 N1         24.5049   42.7744   14.3585 N.2         1 HNT       0.3079
     13 O3         23.7560   41.8520   14.1786 O.2         1 HNT       0.1750
     14 C4A        27.2310   43.9414   16.6046 C.ar        1 HNT       0.0118
     15 N41        29.0664   45.0704   17.8934 N.4         1 HNT       0.2433
     16 H1         27.8329   43.2452   19.5111 H           1 HNT       0.0480
     17 H2         28.6454   41.8307   18.8245 H           1 HNT       0.0480
     18 H3         30.0380   43.2710   17.3785 H           1 HNT       0.0897
     19 H4         27.5671   46.0200   16.7772 H           1 HNT       0.0965
     20 H5         28.7679   45.1420   15.8198 H           1 HNT       0.0965
     21 H6         26.2637   44.6732   14.8901 H           1 HNT       0.0612
     22 H7         24.8992   40.9105   16.2179 H           1 HNT       0.0619
     23 H8         26.4738   40.9578   18.0029 H           1 HNT       0.0555
     24 H9         32.4878   44.0272   19.5576 H           1 HNT       0.2097
     25 H10        30.7402   42.7875   19.7930 H           1 HNT       0.0615
     26 H11        30.2189   44.4345   20.1941 H           1 HNT       0.0615
     27 H12        29.8661   45.6740   17.6900 H           1 HNT       0.2032
     28 H13        28.5688   45.4586   18.6973 H           1 HNT       0.2032
@<TRIPOS>BOND
     1     2     1   1
     2     1    11   1
     3     2    10   1
     4    15     2   1
     5    12     3   2
     6    14     4   1
     7     4    15   1
     8     6     5  ar
     9     5    14  ar
    10     6     7  ar
    11     6    12   1
    12     7     8  ar
    13     8    11  ar
    14    10     9   1
    15    11    14  ar
    16    12    13   2
    17     1    16   1
    18     1    17   1
    19     2    18   1
    20     4    19   1
    21     4    20   1
    22     5    21   1
    23     7    22   1
    24     8    23   1
    25     9    24   1
    26    10    25   1
    27    10    26   1
    28    15    27   1
    29    15    28   1
@<TRIPOS>SUBSTRUCTURE
     1  HNT      1

