@<TRIPOS>MOLECULE
2gss_ligand_010
    30    30
SMALL
GAST_HUCK
****
This file was generated by PARSER (from files_GN.cpp)

@<TRIPOS>ATOM
      1 C1          9.4511    0.9978   26.6014 C.ar        1 EAA       0.1139
      2 O2          8.7557    0.9694   27.7880 O.3         1 EAA      -0.2994
      3 C2         10.0622    2.1696   26.1030 C.ar        1 EAA       0.0881
      4 CL1         9.9823    3.5851   27.0472 Cl          1 EAA      -0.0767
      5 C3         10.7411    2.1435   24.8520 C.ar        1 EAA       0.0650
      6 CL2        11.3572    3.6105   24.2347 Cl          1 EAA      -0.0667
      7 C4         10.8451    0.9289   24.1077 C.ar        1 EAA       0.0377
      8 C5         10.2421   -0.2348   24.6588 C.ar        1 EAA      -0.0512
      9 C6          9.5624   -0.2046   25.8845 C.ar        1 EAA      -0.0258
     10 C7         11.5158    0.8191   22.8820 C.2         1 EAA       0.1527
     11 O1         12.5305    1.4754   22.6769 O.2         1 EAA      -0.3720
     12 C8         11.0442    0.0836   21.8337 C.2         1 EAA       0.0058
     13 C9         11.6782   -1.1947   21.4928 C.3         1 EAA      -0.0152
     14 C10        13.0361   -1.0443   20.7748 C.3         1 EAA      -0.0548
     15 C11         9.9665    0.5288   21.1592 C.2         1 EAA      -0.0907
     16 C12         7.4100    1.4996   27.7307 C.3         1 EAA       0.1241
     17 C13         6.4853    0.5626   28.3791 C.2         1 EAA       0.0656
     18 O           6.8046    0.0240   29.5745 O.co2       1 EAA      -0.5662
     19 OXT         5.1759    0.5968   28.0466 O.co2       1 EAA      -0.5662
     20 H1         10.3109   -1.1435   24.1882 H           1 EAA       0.0644
     21 H2          9.1463   -1.0644   26.2610 H           1 EAA       0.0559
     22 H3         11.0326   -1.7866   20.8317 H           1 EAA       0.0432
     23 H4         11.8202   -1.7935   22.3940 H           1 EAA       0.0432
     24 H5         13.4124   -2.0339   20.4943 H           1 EAA       0.0253
     25 H6         13.7668   -0.5695   21.4287 H           1 EAA       0.0253
     26 H7         12.9172   -0.4493   19.8643 H           1 EAA       0.0253
     27 H8          9.5112    1.3789   21.4059 H           1 EAA       0.0460
     28 H9          9.5918    0.0103   20.4053 H           1 EAA       0.0460
     29 H10         7.0576    1.6867   26.7095 H           1 EAA       0.0788
     30 H11         7.3911    2.4436   28.2715 H           1 EAA       0.0788
@<TRIPOS>BOND
     1     1     2   1
     2     1     3  ar
     3     1     9  ar
     4     2    16   1
     5     3     4   1
     6     3     5  ar
     7     5     6   1
     8     5     7  ar
     9     7     8  ar
    10     7    10   1
    11     8     9  ar
    12    10    11   2
    13    10    12   1
    14    12    13   1
    15    12    15   2
    16    13    14   1
    17    16    17   1
    18    17    18  ar
    19    17    19  ar
    20     8    20   1
    21     9    21   1
    22    13    22   1
    23    13    23   1
    24    14    24   1
    25    14    25   1
    26    14    26   1
    27    15    27   1
    28    15    28   1
    29    16    29   1
    30    16    30   1
@<TRIPOS>SUBSTRUCTURE
     1  EAA      1

