@<TRIPOS>MOLECULE
2gss_ligand_039
    30    30
SMALL
GAST_HUCK
****
This file was generated by PARSER (from files_GN.cpp)

@<TRIPOS>ATOM
      1 C1         10.6119    7.7585   23.9361 C.ar        1 EAA       0.1139
      2 O2          9.5427    7.1169   23.3696 O.3         1 EAA      -0.2994
      3 C2         10.7516    7.8170   25.3388 C.ar        1 EAA       0.0881
      4 CL1         9.5586    7.0504   26.2790 Cl          1 EAA      -0.0767
      5 C3         11.8489    8.5115   25.9106 C.ar        1 EAA       0.0650
      6 CL2        11.9428    8.5719   27.6083 Cl          1 EAA      -0.0667
      7 C4         12.8141    9.1633   25.0778 C.ar        1 EAA       0.0377
      8 C5         12.6262    9.0867   23.6696 C.ar        1 EAA      -0.0512
      9 C6         11.5408    8.4013   23.1057 C.ar        1 EAA      -0.0258
     10 C7         13.9348    9.8905   25.5419 C.2         1 EAA       0.1527
     11 O1         14.4481   10.7278   24.8161 O.2         1 EAA      -0.3720
     12 C8         14.5966    9.7053   26.7178 C.2         1 EAA       0.0058
     13 C9         14.4452   10.6947   27.7905 C.3         1 EAA      -0.0152
     14 C10        15.3405   11.9433   27.6078 C.3         1 EAA      -0.0548
     15 C11        15.4098    8.6377   26.8642 C.2         1 EAA      -0.0907
     16 C12         9.8198    5.7665   22.9350 C.3         1 EAA       0.1241
     17 C13         8.7060    4.8760   23.3009 C.2         1 EAA       0.0656
     18 O           8.7423    3.5722   22.9401 O.co2       1 EAA      -0.5662
     19 OXT         7.7054    5.2913   24.1136 O.co2       1 EAA      -0.5662
     20 H1         13.2956    9.5243   23.0249 H           1 EAA       0.0644
     21 H2         11.4356    8.3654   22.0895 H           1 EAA       0.0559
     22 H3         14.6577   10.2457   28.7669 H           1 EAA       0.0432
     23 H4         13.4053   11.0418   27.8390 H           1 EAA       0.0432
     24 H5         15.2171   12.6081   28.4671 H           1 EAA       0.0253
     25 H6         15.0542   12.4934   26.7090 H           1 EAA       0.0253
     26 H7         16.3895   11.6688   27.5349 H           1 EAA       0.0253
     27 H8         15.5555    7.9873   26.1262 H           1 EAA       0.0460
     28 H9         15.9152    8.5030   27.7081 H           1 EAA       0.0460
     29 H10        10.7306    5.3460   23.3737 H           1 EAA       0.0788
     30 H11         9.9248    5.7786   21.8462 H           1 EAA       0.0788
@<TRIPOS>BOND
     1     1     2   1
     2     1     3  ar
     3     1     9  ar
     4     2    16   1
     5     3     4   1
     6     3     5  ar
     7     5     6   1
     8     5     7  ar
     9     7     8  ar
    10     7    10   1
    11     8     9  ar
    12    10    11   2
    13    10    12   1
    14    12    13   1
    15    12    15   2
    16    13    14   1
    17    16    17   1
    18    17    18  ar
    19    17    19  ar
    20     8    20   1
    21     9    21   1
    22    13    22   1
    23    13    23   1
    24    14    24   1
    25    14    25   1
    26    14    26   1
    27    15    27   1
    28    15    28   1
    29    16    29   1
    30    16    30   1
@<TRIPOS>SUBSTRUCTURE
     1  EAA      1

