@<TRIPOS>MOLECULE
2gss_ligand_034
    30    30
SMALL
GAST_HUCK
****
This file was generated by PARSER (from files_GN.cpp)

@<TRIPOS>ATOM
      1 C1         11.7241    9.5518   20.5527 C.ar        1 EAA       0.1139
      2 O2         11.1831    9.7889   19.3140 O.3         1 EAA      -0.2994
      3 C2         10.9187    9.0262   21.5915 C.ar        1 EAA       0.0881
      4 CL1         9.2868    8.6847   21.2419 Cl          1 EAA      -0.0767
      5 C3         11.4736    8.7843   22.8769 C.ar        1 EAA       0.0650
      6 CL2        10.4494    8.2755   24.1486 Cl          1 EAA      -0.0667
      7 C4         12.8537    9.0466   23.1129 C.ar        1 EAA       0.0377
      8 C5         13.6511    9.5401   22.0482 C.ar        1 EAA      -0.0512
      9 C6         13.0937    9.7803   20.7840 C.ar        1 EAA      -0.0258
     10 C7         13.4486    8.8985   24.3675 C.2         1 EAA       0.1527
     11 O1         13.3372    7.7872   24.8858 O.2         1 EAA      -0.3720
     12 C8         14.0797    9.9104   25.0778 C.2         1 EAA       0.0058
     13 C9         14.9700    9.5885   26.2058 C.3         1 EAA      -0.0152
     14 C10        14.2656    9.7775   27.5701 C.3         1 EAA      -0.0548
     15 C11        13.8363   11.2124   24.8236 C.2         1 EAA      -0.0907
     16 C12        11.0774   11.1855   18.9520 C.3         1 EAA       0.1241
     17 C13        10.2503   11.3526   17.7493 C.2         1 EAA       0.0656
     18 O           9.5500   10.3240   17.2243 O.co2       1 EAA      -0.5662
     19 OXT        10.1165   12.5756   17.1957 O.co2       1 EAA      -0.5662
     20 H1         14.6538    9.7301   22.1817 H           1 EAA       0.0644
     21 H2         13.6864   10.1275   20.0251 H           1 EAA       0.0559
     22 H3         15.8642   10.2181   26.1691 H           1 EAA       0.0432
     23 H4         15.3258    8.5578   26.1563 H           1 EAA       0.0432
     24 H5         14.9249    9.4438   28.3745 H           1 EAA       0.0253
     25 H6         13.3451    9.1916   27.6106 H           1 EAA       0.0253
     26 H7         14.0167   10.8281   27.7372 H           1 EAA       0.0253
     27 H8         13.1946   11.5020   24.1192 H           1 EAA       0.0460
     28 H9         14.2819   11.9344   25.3438 H           1 EAA       0.0460
     29 H10        12.0758   11.5771   18.7409 H           1 EAA       0.0788
     30 H11        10.6253   11.7783   19.7539 H           1 EAA       0.0788
@<TRIPOS>BOND
     1     1     2   1
     2     1     3  ar
     3     1     9  ar
     4     2    16   1
     5     3     4   1
     6     3     5  ar
     7     5     6   1
     8     5     7  ar
     9     7     8  ar
    10     7    10   1
    11     8     9  ar
    12    10    11   2
    13    10    12   1
    14    12    13   1
    15    12    15   2
    16    13    14   1
    17    16    17   1
    18    17    18  ar
    19    17    19  ar
    20     8    20   1
    21     9    21   1
    22    13    22   1
    23    13    23   1
    24    14    24   1
    25    14    25   1
    26    14    26   1
    27    15    27   1
    28    15    28   1
    29    16    29   1
    30    16    30   1
@<TRIPOS>SUBSTRUCTURE
     1  EAA      1

