@<TRIPOS>MOLECULE
2gss_ligand_028
    30    30
SMALL
GAST_HUCK
****
This file was generated by PARSER (from files_GN.cpp)

@<TRIPOS>ATOM
      1 C1         10.1702    3.6759   24.9986 C.ar        1 EAA       0.1139
      2 O2          9.4749    4.5173   25.8372 O.3         1 EAA      -0.2994
      3 C2         10.0173    2.2785   25.1287 C.ar        1 EAA       0.0881
      4 CL1         8.9751    1.6936   26.3407 Cl          1 EAA      -0.0767
      5 C3         10.7111    1.3985   24.2557 C.ar        1 EAA       0.0650
      6 CL2        10.5389   -0.2785   24.5151 Cl          1 EAA      -0.0667
      7 C4         11.5364    1.9139   23.2057 C.ar        1 EAA       0.0377
      8 C5         11.7266    3.3180   23.1540 C.ar        1 EAA      -0.0512
      9 C6         11.0620    4.1848   24.0374 C.ar        1 EAA      -0.0258
     10 C7         12.1249    1.1242   22.1930 C.2         1 EAA       0.1527
     11 O1         13.1766    1.4886   21.6736 O.2         1 EAA      -0.3720
     12 C8         11.5064    0.0641   21.5822 C.2         1 EAA       0.0058
     13 C9         10.2810    0.2722   20.7908 C.3         1 EAA      -0.0152
     14 C10         9.0867    0.9558   21.4998 C.3         1 EAA      -0.0548
     15 C11        12.1483   -1.1226   21.5315 C.2         1 EAA      -0.0907
     16 C12         8.3919    5.2774   25.2558 C.3         1 EAA       0.1241
     17 C13         7.3897    4.4783   24.5234 C.2         1 EAA       0.0656
     18 O           7.2332    4.6309   23.1899 O.co2       1 EAA      -0.5662
     19 OXT         6.7059    3.4921   25.1422 O.co2       1 EAA      -0.5662
     20 H1         12.3087    3.7414   22.4283 H           1 EAA       0.0644
     21 H2         11.2115    5.1932   23.9608 H           1 EAA       0.0559
     22 H3          9.8963   -0.6761   20.4067 H           1 EAA       0.0432
     23 H4         10.5464    0.8691   19.9161 H           1 EAA       0.0432
     24 H5          8.2157    0.9499   20.8402 H           1 EAA       0.0253
     25 H6          9.3077    1.9984   21.7196 H           1 EAA       0.0253
     26 H7          8.8309    0.4395   22.4278 H           1 EAA       0.0253
     27 H8         13.0274   -1.2589   21.9739 H           1 EAA       0.0460
     28 H9         11.7724   -1.8891   21.0280 H           1 EAA       0.0460
     29 H10         8.7977    6.0542   24.6031 H           1 EAA       0.0788
     30 H11         7.8815    5.7867   26.0758 H           1 EAA       0.0788
@<TRIPOS>BOND
     1     1     2   1
     2     1     3  ar
     3     1     9  ar
     4     2    16   1
     5     3     4   1
     6     3     5  ar
     7     5     6   1
     8     5     7  ar
     9     7     8  ar
    10     7    10   1
    11     8     9  ar
    12    10    11   2
    13    10    12   1
    14    12    13   1
    15    12    15   2
    16    13    14   1
    17    16    17   1
    18    17    18  ar
    19    17    19  ar
    20     8    20   1
    21     9    21   1
    22    13    22   1
    23    13    23   1
    24    14    24   1
    25    14    25   1
    26    14    26   1
    27    15    27   1
    28    15    28   1
    29    16    29   1
    30    16    30   1
@<TRIPOS>SUBSTRUCTURE
     1  EAA      1

