@<TRIPOS>MOLECULE
2gss_ligand_032
    30    30
SMALL
GAST_HUCK
****
This file was generated by PARSER (from files_GN.cpp)

@<TRIPOS>ATOM
      1 C1          9.7716    6.8540   23.3021 C.ar        1 EAA       0.1139
      2 O2         10.7234    5.8764   23.0982 O.3         1 EAA      -0.2994
      3 C2          9.2704    7.5934   22.2042 C.ar        1 EAA       0.0881
      4 CL1         9.8768    7.2472   20.6526 Cl          1 EAA      -0.0767
      5 C3          8.2837    8.5948   22.3967 C.ar        1 EAA       0.0650
      6 CL2         7.6998    9.4830   21.0617 Cl          1 EAA      -0.0667
      7 C4          7.8060    8.8747   23.7112 C.ar        1 EAA       0.0377
      8 C5          8.3426    8.1478   24.7965 C.ar        1 EAA      -0.0512
      9 C6          9.3308    7.1757   24.6014 C.ar        1 EAA      -0.0258
     10 C7          6.7979    9.7966   23.9919 C.2         1 EAA       0.1527
     11 O1          5.7088    9.6767   23.4449 O.2         1 EAA      -0.3720
     12 C8          7.0621   10.9702   24.6355 C.2         1 EAA       0.0058
     13 C9          6.5397   11.2007   25.9880 C.3         1 EAA      -0.0152
     14 C10         5.1533   11.8873   25.9776 C.3         1 EAA      -0.0548
     15 C11         7.7276   11.9337   23.9800 C.2         1 EAA      -0.0907
     16 C12        10.5205    4.5588   23.6609 C.3         1 EAA       0.1241
     17 C13         9.3492    3.8394   23.1178 C.2         1 EAA       0.0656
     18 O           9.4866    2.6710   22.4492 O.co2       1 EAA      -0.5662
     19 OXT         8.1046    4.2887   23.3805 O.co2       1 EAA      -0.5662
     20 H1          7.9998    8.2981   25.7524 H           1 EAA       0.0644
     21 H2          9.7078    6.6797   25.4130 H           1 EAA       0.0559
     22 H3          7.2361   11.8178   26.5627 H           1 EAA       0.0432
     23 H4          6.4352   10.2625   26.5378 H           1 EAA       0.0432
     24 H5          4.8135   12.0444   27.0023 H           1 EAA       0.0253
     25 H6          4.4263   11.2546   25.4643 H           1 EAA       0.0253
     26 H7          5.2035   12.8546   25.4737 H           1 EAA       0.0253
     27 H8          8.0635   11.7964   23.0529 H           1 EAA       0.0460
     28 H9          7.9006   12.8156   24.4036 H           1 EAA       0.0460
     29 H10        10.4360    4.6004   24.7487 H           1 EAA       0.0788
     30 H11        11.4221    3.9761   23.4352 H           1 EAA       0.0788
@<TRIPOS>BOND
     1     1     2   1
     2     1     3  ar
     3     1     9  ar
     4     2    16   1
     5     3     4   1
     6     3     5  ar
     7     5     6   1
     8     5     7  ar
     9     7     8  ar
    10     7    10   1
    11     8     9  ar
    12    10    11   2
    13    10    12   1
    14    12    13   1
    15    12    15   2
    16    13    14   1
    17    16    17   1
    18    17    18  ar
    19    17    19  ar
    20     8    20   1
    21     9    21   1
    22    13    22   1
    23    13    23   1
    24    14    24   1
    25    14    25   1
    26    14    26   1
    27    15    27   1
    28    15    28   1
    29    16    29   1
    30    16    30   1
@<TRIPOS>SUBSTRUCTURE
     1  EAA      1

