@<TRIPOS>MOLECULE
2gss_ligand_005
    30    30
SMALL
GAST_HUCK
****
This file was generated by PARSER (from files_GN.cpp)

@<TRIPOS>ATOM
      1 C1         10.3743    3.8766   25.6631 C.ar        1 EAA       0.1139
      2 O2          9.9474    4.7576   26.6235 O.3         1 EAA      -0.2994
      3 C2         10.1386    2.4905   25.7668 C.ar        1 EAA       0.0881
      4 CL1         9.2944    1.9151   27.1275 Cl          1 EAA      -0.0767
      5 C3         10.5992    1.6092   24.7506 C.ar        1 EAA       0.0650
      6 CL2        10.3527   -0.0635   24.9457 Cl          1 EAA      -0.0667
      7 C4         11.2831    2.1337   23.6087 C.ar        1 EAA       0.0377
      8 C5         11.5176    3.5275   23.5433 C.ar        1 EAA      -0.0512
      9 C6         11.0614    4.3887   24.5484 C.ar        1 EAA      -0.0258
     10 C7         11.6813    1.3551   22.5176 C.2         1 EAA       0.1527
     11 O1         12.8586    1.4328   22.1441 O.2         1 EAA      -0.3720
     12 C8         10.8132    0.5923   21.7691 C.2         1 EAA       0.0058
     13 C9          9.3788    0.9116   21.7406 C.3         1 EAA      -0.0152
     14 C10         8.5959    0.5456   20.4502 C.3         1 EAA      -0.0548
     15 C11        11.2860   -0.5060   21.1156 C.2         1 EAA      -0.0907
     16 C12        10.9541    5.1486   27.5827 C.3         1 EAA       0.1241
     17 C13        12.1520    5.7267   26.9565 C.2         1 EAA       0.0656
     18 O          13.0949    4.8903   26.4624 O.co2       1 EAA      -0.5662
     19 OXT        12.1076    6.9880   26.4750 O.co2       1 EAA      -0.5662
     20 H1         12.0040    3.9403   22.7420 H           1 EAA       0.0644
     21 H2         11.2249    5.3880   24.4607 H           1 EAA       0.0559
     22 H3          9.2185    1.9812   21.8960 H           1 EAA       0.0432
     23 H4          8.8973    0.3965   22.5740 H           1 EAA       0.0432
     24 H5          7.6144    1.0297   20.4688 H           1 EAA       0.0253
     25 H6          8.4380   -0.5319   20.3840 H           1 EAA       0.0253
     26 H7          9.1382    0.8839   19.5647 H           1 EAA       0.0253
     27 H8         12.2383   -0.7799   21.1878 H           1 EAA       0.0460
     28 H9         10.6829   -1.0884   20.5823 H           1 EAA       0.0460
     29 H10        11.2391    4.3075   28.2216 H           1 EAA       0.0788
     30 H11        10.5175    5.9109   28.2345 H           1 EAA       0.0788
@<TRIPOS>BOND
     1     1     2   1
     2     1     3  ar
     3     1     9  ar
     4     2    16   1
     5     3     4   1
     6     3     5  ar
     7     5     6   1
     8     5     7  ar
     9     7     8  ar
    10     7    10   1
    11     8     9  ar
    12    10    11   2
    13    10    12   1
    14    12    13   1
    15    12    15   2
    16    13    14   1
    17    16    17   1
    18    17    18  ar
    19    17    19  ar
    20     8    20   1
    21     9    21   1
    22    13    22   1
    23    13    23   1
    24    14    24   1
    25    14    25   1
    26    14    26   1
    27    15    27   1
    28    15    28   1
    29    16    29   1
    30    16    30   1
@<TRIPOS>SUBSTRUCTURE
     1  EAA      1

