@<TRIPOS>MOLECULE
2gss_ligand_030
    30    30
SMALL
GAST_HUCK
****
This file was generated by PARSER (from files_GN.cpp)

@<TRIPOS>ATOM
      1 C1         14.4369   10.6224   20.8120 C.ar        1 EAA       0.1139
      2 O2         14.5916   11.3630   19.6675 O.3         1 EAA      -0.2994
      3 C2         13.2706   10.6582   21.6179 C.ar        1 EAA       0.0881
      4 CL1        11.9185   11.5179   21.0621 Cl          1 EAA      -0.0767
      5 C3         13.2425    9.9720   22.8717 C.ar        1 EAA       0.0650
      6 CL2        11.7981    9.9944   23.7697 Cl          1 EAA      -0.0667
      7 C4         14.3830    9.2417   23.3169 C.ar        1 EAA       0.0377
      8 C5         15.5128    9.1754   22.4586 C.ar        1 EAA      -0.0512
      9 C6         15.5518    9.8681   21.2380 C.ar        1 EAA      -0.0258
     10 C7         14.4412    8.5807   24.5515 C.2         1 EAA       0.1527
     11 O1         15.0255    7.5060   24.6337 O.2         1 EAA      -0.3720
     12 C8         14.2037    9.2043   25.7400 C.2         1 EAA       0.0058
     13 C9         15.2046   10.0979   26.3329 C.3         1 EAA      -0.0152
     14 C10        14.6914   11.5247   26.6421 C.3         1 EAA      -0.0548
     15 C11        13.0736    8.8985   26.4232 C.2         1 EAA      -0.0907
     16 C12        13.6065   11.1688   18.6391 C.3         1 EAA       0.1241
     17 C13        13.0481   12.4583   18.2445 C.2         1 EAA       0.0656
     18 O          11.7140   12.6492   18.1471 O.co2       1 EAA      -0.5662
     19 OXT        13.8715   13.5258   18.0219 O.co2       1 EAA      -0.5662
     20 H1         16.3495    8.6402   22.7271 H           1 EAA       0.0644
     21 H2         16.3941    9.8347   20.6634 H           1 EAA       0.0559
     22 H3         16.0679   10.2051   25.6654 H           1 EAA       0.0432
     23 H4         15.5819    9.6542   27.2632 H           1 EAA       0.0432
     24 H5         15.5014   12.1247   27.0586 H           1 EAA       0.0253
     25 H6         13.8803   11.4953   27.3721 H           1 EAA       0.0253
     26 H7         14.3340   12.0045   25.7292 H           1 EAA       0.0253
     27 H8         12.4149    8.2564   26.0656 H           1 EAA       0.0460
     28 H9         12.8812    9.3163   27.3072 H           1 EAA       0.0460
     29 H10        12.8074   10.4889   18.9117 H           1 EAA       0.0788
     30 H11        14.1088   10.7405   17.7428 H           1 EAA       0.0788
@<TRIPOS>BOND
     1     1     2   1
     2     1     3  ar
     3     1     9  ar
     4     2    16   1
     5     3     4   1
     6     3     5  ar
     7     5     6   1
     8     5     7  ar
     9     7     8  ar
    10     7    10   1
    11     8     9  ar
    12    10    11   2
    13    10    12   1
    14    12    13   1
    15    12    15   2
    16    13    14   1
    17    16    17   1
    18    17    18  ar
    19    17    19  ar
    20     8    20   1
    21     9    21   1
    22    13    22   1
    23    13    23   1
    24    14    24   1
    25    14    25   1
    26    14    26   1
    27    15    27   1
    28    15    28   1
    29    16    29   1
    30    16    30   1
@<TRIPOS>SUBSTRUCTURE
     1  EAA      1

