@<TRIPOS>MOLECULE
2gss_ligand_008
    30    30
SMALL
GAST_HUCK
****
This file was generated by PARSER (from files_GN.cpp)

@<TRIPOS>ATOM
      1 C1         11.7931    8.2012   23.2395 C.ar        1 EAA       0.1139
      2 O2         11.1322    7.4851   22.2815 O.3         1 EAA      -0.2994
      3 C2         11.5577    8.0054   24.6219 C.ar        1 EAA       0.0881
      4 CL1        10.3662    6.8802   25.0756 Cl          1 EAA      -0.0767
      5 C3         12.3181    8.7232   25.5833 C.ar        1 EAA       0.0650
      6 CL2        11.9740    8.5012   27.2381 Cl          1 EAA      -0.0667
      7 C4         13.3226    9.6434   25.1622 C.ar        1 EAA       0.0377
      8 C5         13.5460    9.8053   23.7715 C.ar        1 EAA      -0.0512
      9 C6         12.8032    9.0866   22.8251 C.ar        1 EAA      -0.0258
     10 C7         14.1252   10.3827   26.0473 C.2         1 EAA       0.1527
     11 O1         14.3392   11.5533   25.7550 O.2         1 EAA      -0.3720
     12 C8         14.9215    9.8271   27.0196 C.2         1 EAA       0.0058
     13 C9         14.9808   10.4229   28.3677 C.3         1 EAA      -0.0152
     14 C10        15.5462   11.8629   28.4408 C.3         1 EAA      -0.0548
     15 C11        15.6613    8.7337   26.7446 C.2         1 EAA      -0.0907
     16 C12         9.9842    8.1614   21.7319 C.3         1 EAA       0.1241
     17 C13         9.4992    7.4318   20.5511 C.2         1 EAA       0.0656
     18 O          10.3830    6.9204   19.6668 O.co2       1 EAA      -0.5662
     19 OXT         8.2455    7.6809   20.1009 O.co2       1 EAA      -0.5662
     20 H1         14.2789   10.4363   23.4288 H           1 EAA       0.0644
     21 H2         13.0081    9.2076   21.8264 H           1 EAA       0.0559
     22 H3         15.5926    9.8136   29.0438 H           1 EAA       0.0432
     23 H4         13.9769   10.4207   28.7958 H           1 EAA       0.0432
     24 H5         15.7602   12.1216   29.4817 H           1 EAA       0.0253
     25 H6         14.8248   12.5846   28.0545 H           1 EAA       0.0253
     26 H7         16.4723   11.9457   27.8711 H           1 EAA       0.0253
     27 H8         15.6466    8.3059   25.8483 H           1 EAA       0.0460
     28 H9         16.2549    8.3289   27.4277 H           1 EAA       0.0460
     29 H10        10.2266    9.1841   21.4279 H           1 EAA       0.0788
     30 H11         9.1822    8.1942   22.4736 H           1 EAA       0.0788
@<TRIPOS>BOND
     1     1     2   1
     2     1     3  ar
     3     1     9  ar
     4     2    16   1
     5     3     4   1
     6     3     5  ar
     7     5     6   1
     8     5     7  ar
     9     7     8  ar
    10     7    10   1
    11     8     9  ar
    12    10    11   2
    13    10    12   1
    14    12    13   1
    15    12    15   2
    16    13    14   1
    17    16    17   1
    18    17    18  ar
    19    17    19  ar
    20     8    20   1
    21     9    21   1
    22    13    22   1
    23    13    23   1
    24    14    24   1
    25    14    25   1
    26    14    26   1
    27    15    27   1
    28    15    28   1
    29    16    29   1
    30    16    30   1
@<TRIPOS>SUBSTRUCTURE
     1  EAA      1

