@<TRIPOS>MOLECULE
2gss_ligand_037
    30    30
SMALL
GAST_HUCK
****
This file was generated by PARSER (from files_GN.cpp)

@<TRIPOS>ATOM
      1 C1         12.2709    5.9849   26.4798 C.ar        1 EAA       0.1139
      2 O2         11.5955    4.8138   26.7680 O.3         1 EAA      -0.2994
      3 C2         13.6622    5.9170   26.2361 C.ar        1 EAA       0.0881
      4 CL1        14.4175    4.3945   26.3013 Cl          1 EAA      -0.0767
      5 C3         14.4045    7.0965   25.9754 C.ar        1 EAA       0.0650
      6 CL2        16.0475    6.9518   25.5396 Cl          1 EAA      -0.0667
      7 C4         13.7643    8.3692   25.9886 C.ar        1 EAA       0.0377
      8 C5         12.3686    8.4136   26.2233 C.ar        1 EAA      -0.0512
      9 C6         11.6294    7.2427   26.4461 C.ar        1 EAA      -0.0258
     10 C7         14.4499    9.5673   25.7520 C.2         1 EAA       0.1527
     11 O1         15.4728    9.7986   26.3842 O.2         1 EAA      -0.3720
     12 C8         14.0731   10.4900   24.8146 C.2         1 EAA       0.0058
     13 C9         13.9853   10.0923   23.4017 C.3         1 EAA      -0.0152
     14 C10        12.8782    9.0519   23.1091 C.3         1 EAA      -0.0548
     15 C11        13.8721   11.7689   25.1902 C.2         1 EAA      -0.0907
     16 C12        10.6787    4.7725   27.8839 C.3         1 EAA       0.1241
     17 C13        11.1211    5.5464   29.0555 C.2         1 EAA       0.0656
     18 O          10.6788    6.8100   29.2542 O.co2       1 EAA      -0.5662
     19 OXT        12.0982    5.0591   29.8527 O.co2       1 EAA      -0.5662
     20 H1         11.8721    9.3049   26.2352 H           1 EAA       0.0644
     21 H2         10.6283    7.3195   26.6147 H           1 EAA       0.0559
     22 H3         14.9474    9.6802   23.0816 H           1 EAA       0.0432
     23 H4         13.8007   10.9560   22.7524 H           1 EAA       0.0432
     24 H5         12.7549    8.9395   22.0318 H           1 EAA       0.0253
     25 H6         11.9288    9.3727   23.5363 H           1 EAA       0.0253
     26 H7         13.1402    8.0788   23.5183 H           1 EAA       0.0253
     27 H8         13.9638   12.0484   26.1361 H           1 EAA       0.0460
     28 H9         13.6105   12.4605   24.5336 H           1 EAA       0.0460
     29 H10        10.5792    3.7290   28.1891 H           1 EAA       0.0788
     30 H11         9.6885    5.1106   27.5584 H           1 EAA       0.0788
@<TRIPOS>BOND
     1     1     2   1
     2     1     3  ar
     3     1     9  ar
     4     2    16   1
     5     3     4   1
     6     3     5  ar
     7     5     6   1
     8     5     7  ar
     9     7     8  ar
    10     7    10   1
    11     8     9  ar
    12    10    11   2
    13    10    12   1
    14    12    13   1
    15    12    15   2
    16    13    14   1
    17    16    17   1
    18    17    18  ar
    19    17    19  ar
    20     8    20   1
    21     9    21   1
    22    13    22   1
    23    13    23   1
    24    14    24   1
    25    14    25   1
    26    14    26   1
    27    15    27   1
    28    15    28   1
    29    16    29   1
    30    16    30   1
@<TRIPOS>SUBSTRUCTURE
     1  EAA      1

