@<TRIPOS>MOLECULE
2gss_ligand_033
    30    30
SMALL
GAST_HUCK
****
This file was generated by PARSER (from files_GN.cpp)

@<TRIPOS>ATOM
      1 C1         10.7676    7.5351   25.3828 C.ar        1 EAA       0.1139
      2 O2          9.5313    7.0839   25.7804 O.3         1 EAA      -0.2994
      3 C2         11.7187    7.9642   26.3328 C.ar        1 EAA       0.0881
      4 CL1        11.2309    8.0354   27.9618 Cl          1 EAA      -0.0767
      5 C3         13.0106    8.3800   25.9162 C.ar        1 EAA       0.0650
      6 CL2        14.1034    8.9612   27.0924 Cl          1 EAA      -0.0667
      7 C4         13.3394    8.4174   24.5274 C.ar        1 EAA       0.0377
      8 C5         12.3329    8.0672   23.5927 C.ar        1 EAA      -0.0512
      9 C6         11.0709    7.6188   24.0108 C.ar        1 EAA      -0.0258
     10 C7         14.5735    8.8896   24.0538 C.2         1 EAA       0.1527
     11 O1         15.5753    8.7123   24.7374 O.2         1 EAA      -0.3720
     12 C8         14.7107    9.6121   22.8962 C.2         1 EAA       0.0058
     13 C9         13.7128   10.6070   22.4575 C.3         1 EAA      -0.0152
     14 C10        12.7374   11.2176   23.4999 C.3         1 EAA      -0.0548
     15 C11        15.7725    9.3773   22.0983 C.2         1 EAA      -0.0907
     16 C12         9.3768    5.6472   25.7843 C.3         1 EAA       0.1241
     17 C13        10.3637    4.9301   26.6160 C.2         1 EAA       0.0656
     18 O          11.5082    4.4666   26.0630 O.co2       1 EAA      -0.5662
     19 OXT        10.3111    5.0434   27.9616 O.co2       1 EAA      -0.5662
     20 H1         12.5110    8.1217   22.5851 H           1 EAA       0.0644
     21 H2         10.3678    7.3620   23.3151 H           1 EAA       0.0559
     22 H3         13.1179   10.1597   21.6584 H           1 EAA       0.0432
     23 H4         14.2444   11.4582   22.0234 H           1 EAA       0.0432
     24 H5         12.1737   12.0393   23.0569 H           1 EAA       0.0253
     25 H6         13.2911   11.6133   24.3529 H           1 EAA       0.0253
     26 H7         12.0159   10.4795   23.8508 H           1 EAA       0.0253
     27 H8         16.4752    8.7148   22.3384 H           1 EAA       0.0460
     28 H9         15.8934    9.8761   21.2465 H           1 EAA       0.0460
     29 H10         9.3956    5.2542   24.7642 H           1 EAA       0.0788
     30 H11         8.3866    5.4294   26.1876 H           1 EAA       0.0788
@<TRIPOS>BOND
     1     1     2   1
     2     1     3  ar
     3     1     9  ar
     4     2    16   1
     5     3     4   1
     6     3     5  ar
     7     5     6   1
     8     5     7  ar
     9     7     8  ar
    10     7    10   1
    11     8     9  ar
    12    10    11   2
    13    10    12   1
    14    12    13   1
    15    12    15   2
    16    13    14   1
    17    16    17   1
    18    17    18  ar
    19    17    19  ar
    20     8    20   1
    21     9    21   1
    22    13    22   1
    23    13    23   1
    24    14    24   1
    25    14    25   1
    26    14    26   1
    27    15    27   1
    28    15    28   1
    29    16    29   1
    30    16    30   1
@<TRIPOS>SUBSTRUCTURE
     1  EAA      1

