@<TRIPOS>MOLECULE
2gss_ligand_024
    30    30
SMALL
GAST_HUCK
****
This file was generated by PARSER (from files_GN.cpp)

@<TRIPOS>ATOM
      1 C1         10.6697    8.0981   21.9408 C.ar        1 EAA       0.1139
      2 O2         11.8750    8.7068   21.7176 O.3         1 EAA      -0.2994
      3 C2         10.1596    7.7826   23.2227 C.ar        1 EAA       0.0881
      4 CL1        11.1574    8.0895   24.5687 Cl          1 EAA      -0.0767
      5 C3          8.8456    7.2546   23.3533 C.ar        1 EAA       0.0650
      6 CL2         8.2228    7.0382   24.9259 Cl          1 EAA      -0.0667
      7 C4          8.0438    7.0099   22.1936 C.ar        1 EAA       0.0377
      8 C5          8.6075    7.3098   20.9259 C.ar        1 EAA      -0.0512
      9 C6          9.9004    7.8244   20.7982 C.ar        1 EAA      -0.0258
     10 C7          6.7166    6.5328   22.2483 C.2         1 EAA       0.1527
     11 O1          6.4181    5.6909   23.0873 O.2         1 EAA      -0.3720
     12 C8          5.7584    6.7895   21.3002 C.2         1 EAA       0.0058
     13 C9          5.3630    5.6971   20.3939 C.3         1 EAA      -0.0152
     14 C10         3.8923    5.6457   19.9196 C.3         1 EAA      -0.0548
     15 C11         5.3732    8.0666   21.1119 C.2         1 EAA      -0.0907
     16 C12        11.9977   10.0984   22.0933 C.3         1 EAA       0.1241
     17 C13        10.7599   10.8911   22.2555 C.2         1 EAA       0.0656
     18 O           9.9669   10.6709   23.3270 O.co2       1 EAA      -0.5662
     19 OXT        10.1798   11.4503   21.1676 O.co2       1 EAA      -0.5662
     20 H1          8.0795    7.1552   20.0628 H           1 EAA       0.0644
     21 H2         10.2778    8.0233   19.8660 H           1 EAA       0.0559
     22 H3          5.5494    4.7324   20.8759 H           1 EAA       0.0432
     23 H4          6.0002    5.7425   19.5080 H           1 EAA       0.0432
     24 H5          3.7102    4.7184   19.3663 H           1 EAA       0.0253
     25 H6          3.6740    6.4838   19.2562 H           1 EAA       0.0253
     26 H7          3.2167    5.6714   20.7757 H           1 EAA       0.0253
     27 H8          5.7036    8.8021   21.6961 H           1 EAA       0.0460
     28 H9          4.7748    8.3219   20.3671 H           1 EAA       0.0460
     29 H10        12.6042   10.5771   21.3220 H           1 EAA       0.0788
     30 H11        12.5728   10.1406   23.0195 H           1 EAA       0.0788
@<TRIPOS>BOND
     1     1     2   1
     2     1     3  ar
     3     1     9  ar
     4     2    16   1
     5     3     4   1
     6     3     5  ar
     7     5     6   1
     8     5     7  ar
     9     7     8  ar
    10     7    10   1
    11     8     9  ar
    12    10    11   2
    13    10    12   1
    14    12    13   1
    15    12    15   2
    16    13    14   1
    17    16    17   1
    18    17    18  ar
    19    17    19  ar
    20     8    20   1
    21     9    21   1
    22    13    22   1
    23    13    23   1
    24    14    24   1
    25    14    25   1
    26    14    26   1
    27    15    27   1
    28    15    28   1
    29    16    29   1
    30    16    30   1
@<TRIPOS>SUBSTRUCTURE
     1  EAA      1

