@<TRIPOS>MOLECULE
2gss_ligand_038
    30    30
SMALL
GAST_HUCK
****
This file was generated by PARSER (from files_GN.cpp)

@<TRIPOS>ATOM
      1 C1         10.1670    1.4011   24.2254 C.ar        1 EAA       0.1139
      2 O2          9.2236    2.0430   24.9980 O.3         1 EAA      -0.2994
      3 C2         11.0868    2.1378   23.4451 C.ar        1 EAA       0.0881
      4 CL1        11.0240    3.8379   23.5440 Cl          1 EAA      -0.0767
      5 C3         12.0091    1.4664   22.5921 C.ar        1 EAA       0.0650
      6 CL2        13.0377    2.4265   21.6257 Cl          1 EAA      -0.0667
      7 C4         12.0189    0.0366   22.5064 C.ar        1 EAA       0.0377
      8 C5         11.0580   -0.6607   23.2847 C.ar        1 EAA      -0.0512
      9 C6         10.1453    0.0018   24.1117 C.ar        1 EAA      -0.0258
     10 C7         12.9226   -0.7152   21.7144 C.2         1 EAA       0.1527
     11 O1         13.9998   -0.2515   21.3699 O.2         1 EAA      -0.3720
     12 C8         12.6778   -1.9753   21.2382 C.2         1 EAA       0.0058
     13 C9         13.4706   -3.1145   21.7201 C.3         1 EAA      -0.0152
     14 C10        14.9702   -3.0528   21.3579 C.3         1 EAA      -0.0548
     15 C11        11.6607   -2.1495   20.3754 C.2         1 EAA      -0.0907
     16 C12         9.0924    1.6368   26.3782 C.3         1 EAA       0.1241
     17 C13        10.1324    2.1863   27.2640 C.2         1 EAA       0.0656
     18 O          10.4417    3.4988   27.1771 O.co2       1 EAA      -0.5662
     19 OXT        10.3585    1.5878   28.4548 O.co2       1 EAA      -0.5662
     20 H1         11.0069   -1.6803   23.2673 H           1 EAA       0.0644
     21 H2          9.4585   -0.5480   24.6306 H           1 EAA       0.0559
     22 H3         13.0944   -4.0552   21.3108 H           1 EAA       0.0432
     23 H4         13.3762   -3.1895   22.8039 H           1 EAA       0.0432
     24 H5         15.4624   -3.9725   21.6808 H           1 EAA       0.0253
     25 H6         15.4594   -2.2140   21.8543 H           1 EAA       0.0253
     26 H7         15.0901   -2.9522   20.2776 H           1 EAA       0.0253
     27 H8         11.1076   -1.3844   20.0690 H           1 EAA       0.0460
     28 H9         11.4366   -3.0474   20.0167 H           1 EAA       0.0460
     29 H10         9.0692    0.5470   26.4661 H           1 EAA       0.0788
     30 H11         8.1284    2.0060   26.7301 H           1 EAA       0.0788
@<TRIPOS>BOND
     1     1     2   1
     2     1     3  ar
     3     1     9  ar
     4     2    16   1
     5     3     4   1
     6     3     5  ar
     7     5     6   1
     8     5     7  ar
     9     7     8  ar
    10     7    10   1
    11     8     9  ar
    12    10    11   2
    13    10    12   1
    14    12    13   1
    15    12    15   2
    16    13    14   1
    17    16    17   1
    18    17    18  ar
    19    17    19  ar
    20     8    20   1
    21     9    21   1
    22    13    22   1
    23    13    23   1
    24    14    24   1
    25    14    25   1
    26    14    26   1
    27    15    27   1
    28    15    28   1
    29    16    29   1
    30    16    30   1
@<TRIPOS>SUBSTRUCTURE
     1  EAA      1

