@<TRIPOS>MOLECULE
2gss_ligand_016
    30    30
SMALL
GAST_HUCK
****
This file was generated by PARSER (from files_GN.cpp)

@<TRIPOS>ATOM
      1 C1          9.7750    8.2135   23.7625 C.ar        1 EAA       0.1139
      2 O2          8.6368    8.2327   22.9930 O.3         1 EAA      -0.2994
      3 C2          9.7706    7.8688   25.1341 C.ar        1 EAA       0.0881
      4 CL1         8.2774    7.5265   25.8739 Cl          1 EAA      -0.0767
      5 C3         10.9898    7.8611   25.8605 C.ar        1 EAA       0.0650
      6 CL2        10.9716    7.4827   27.5148 Cl          1 EAA      -0.0667
      7 C4         12.2104    8.1849   25.2080 C.ar        1 EAA       0.0377
      8 C5         12.1861    8.5041   23.8284 C.ar        1 EAA      -0.0512
      9 C6         10.9765    8.5593   23.1236 C.ar        1 EAA      -0.0258
     10 C7         13.4445    8.1664   25.8439 C.2         1 EAA       0.1527
     11 O1         13.8405    7.1054   26.3146 O.2         1 EAA      -0.3720
     12 C8         14.1022    9.3187   26.1756 C.2         1 EAA       0.0058
     13 C9         14.7969   10.0990   25.1488 C.3         1 EAA      -0.0152
     14 C10        13.9560   11.3147   24.6776 C.3         1 EAA      -0.0548
     15 C11        14.1258    9.7493   27.4563 C.2         1 EAA      -0.0907
     16 C12         8.5022    7.1051   22.0793 C.3         1 EAA       0.1241
     17 C13         9.7772    6.5150   21.5978 C.2         1 EAA       0.0656
     18 O          10.4214    7.0633   20.5342 O.co2       1 EAA      -0.5662
     19 OXT        10.5315    5.8523   22.5086 O.co2       1 EAA      -0.5662
     20 H1         13.0505    8.6760   23.3005 H           1 EAA       0.0644
     21 H2         10.9783    8.8097   22.1318 H           1 EAA       0.0559
     22 H3         15.0242    9.4931   24.2703 H           1 EAA       0.0432
     23 H4         15.7638   10.4471   25.5233 H           1 EAA       0.0432
     24 H5         14.3994   11.7425   23.7759 H           1 EAA       0.0253
     25 H6         13.9237   12.0894   25.4531 H           1 EAA       0.0253
     26 H7         12.9364   11.0040   24.4370 H           1 EAA       0.0253
     27 H8         13.6456    9.2599   28.1745 H           1 EAA       0.0460
     28 H9         14.6092   10.5829   27.7149 H           1 EAA       0.0460
     29 H10         7.9397    7.4650   21.2028 H           1 EAA       0.0788
     30 H11         7.9034    6.3050   22.5534 H           1 EAA       0.0788
@<TRIPOS>BOND
     1     1     2   1
     2     1     3  ar
     3     1     9  ar
     4     2    16   1
     5     3     4   1
     6     3     5  ar
     7     5     6   1
     8     5     7  ar
     9     7     8  ar
    10     7    10   1
    11     8     9  ar
    12    10    11   2
    13    10    12   1
    14    12    13   1
    15    12    15   2
    16    13    14   1
    17    16    17   1
    18    17    18  ar
    19    17    19  ar
    20     8    20   1
    21     9    21   1
    22    13    22   1
    23    13    23   1
    24    14    24   1
    25    14    25   1
    26    14    26   1
    27    15    27   1
    28    15    28   1
    29    16    29   1
    30    16    30   1
@<TRIPOS>SUBSTRUCTURE
     1  EAA      1

