@<TRIPOS>MOLECULE
2gss_ligand_023
    30    30
SMALL
GAST_HUCK
****
This file was generated by PARSER (from files_GN.cpp)

@<TRIPOS>ATOM
      1 C1          9.4419    7.2621   21.1091 C.ar        1 EAA       0.1139
      2 O2         10.7997    7.3727   21.2633 O.3         1 EAA      -0.2994
      3 C2          8.5274    7.0088   22.1658 C.ar        1 EAA       0.0881
      4 CL1         9.1418    6.7278   23.7272 Cl          1 EAA      -0.0767
      5 C3          7.1293    6.9823   21.9002 C.ar        1 EAA       0.0650
      6 CL2         6.0449    6.8041   23.2008 Cl          1 EAA      -0.0667
      7 C4          6.6471    7.1894   20.5664 C.ar        1 EAA       0.0377
      8 C5          7.5905    7.3530   19.5323 C.ar        1 EAA      -0.0512
      9 C6          8.9630    7.3841   19.7938 C.ar        1 EAA      -0.0258
     10 C7          5.2896    7.2327   20.2419 C.2         1 EAA       0.1527
     11 O1          4.6458    6.1929   20.1587 O.2         1 EAA      -0.3720
     12 C8          4.5885    8.4061   20.1909 C.2         1 EAA       0.0058
     13 C9          3.5311    8.6529   19.1928 C.3         1 EAA      -0.0152
     14 C10         3.5468    7.8348   17.8777 C.3         1 EAA      -0.0548
     15 C11         4.8003    9.3264   21.1489 C.2         1 EAA      -0.0907
     16 C12        11.3015    8.4815   22.0615 C.3         1 EAA       0.1241
     17 C13        10.4214    9.6761   22.1728 C.2         1 EAA       0.0656
     18 O           9.9016   10.0332   23.3836 O.co2       1 EAA      -0.5662
     19 OXT        10.0473   10.3608   21.0638 O.co2       1 EAA      -0.5662
     20 H1          7.2779    7.4647   18.5594 H           1 EAA       0.0644
     21 H2          9.6106    7.5191   19.0125 H           1 EAA       0.0559
     22 H3          3.5620    9.7080   18.9070 H           1 EAA       0.0432
     23 H4          2.5634    8.4678   19.6728 H           1 EAA       0.0432
     24 H5          2.7521    8.1890   17.2142 H           1 EAA       0.0253
     25 H6          3.3886    6.7773   18.0700 H           1 EAA       0.0253
     26 H7          4.5036    7.9679   17.3614 H           1 EAA       0.0253
     27 H8          5.4595    9.1913   21.8630 H           1 EAA       0.0460
     28 H9          4.2667   10.1694   21.1657 H           1 EAA       0.0460
     29 H10        12.2314    8.8174   21.6004 H           1 EAA       0.0788
     30 H11        11.5495    8.1217   23.0708 H           1 EAA       0.0788
@<TRIPOS>BOND
     1     1     2   1
     2     1     3  ar
     3     1     9  ar
     4     2    16   1
     5     3     4   1
     6     3     5  ar
     7     5     6   1
     8     5     7  ar
     9     7     8  ar
    10     7    10   1
    11     8     9  ar
    12    10    11   2
    13    10    12   1
    14    12    13   1
    15    12    15   2
    16    13    14   1
    17    16    17   1
    18    17    18  ar
    19    17    19  ar
    20     8    20   1
    21     9    21   1
    22    13    22   1
    23    13    23   1
    24    14    24   1
    25    14    25   1
    26    14    26   1
    27    15    27   1
    28    15    28   1
    29    16    29   1
    30    16    30   1
@<TRIPOS>SUBSTRUCTURE
     1  EAA      1

