@<TRIPOS>MOLECULE
2gss_ligand_041
    30    30
SMALL
GAST_HUCK
****
This file was generated by PARSER (from files_GN.cpp)

@<TRIPOS>ATOM
      1 C1          8.9353    3.2078   22.8543 C.ar        1 EAA       0.1139
      2 O2          7.8130    3.9850   23.0566 O.3         1 EAA      -0.2994
      3 C2         10.1723    3.5152   23.4477 C.ar        1 EAA       0.0881
      4 CL1        10.2838    4.9139   24.4065 Cl          1 EAA      -0.0767
      5 C3         11.3165    2.6955   23.1488 C.ar        1 EAA       0.0650
      6 CL2        12.6445    2.8786   24.1753 Cl          1 EAA      -0.0667
      7 C4         11.2542    1.7212   22.1122 C.ar        1 EAA       0.0377
      8 C5          9.9824    1.4014   21.5837 C.ar        1 EAA      -0.0512
      9 C6          8.8458    2.1557   21.9205 C.ar        1 EAA      -0.0258
     10 C7         12.4165    1.0813   21.6100 C.2         1 EAA       0.1527
     11 O1         13.5141    1.6486   21.6885 O.2         1 EAA      -0.3720
     12 C8         12.4672   -0.0087   20.7690 C.2         1 EAA       0.0058
     13 C9         13.0856   -1.2494   21.2313 C.3         1 EAA      -0.0152
     14 C10        12.0864   -2.1552   21.9896 C.3         1 EAA      -0.0548
     15 C11        12.1505    0.1782   19.4583 C.2         1 EAA      -0.0907
     16 C12         7.2035    4.0843   24.3611 C.3         1 EAA       0.1241
     17 C13         7.8778    3.4676   25.5269 C.2         1 EAA       0.0656
     18 O           7.6482    3.9397   26.7846 O.co2       1 EAA      -0.5662
     19 OXT         8.4759    2.2622   25.4224 O.co2       1 EAA      -0.5662
     20 H1          9.8711    0.6709   20.8782 H           1 EAA       0.0644
     21 H2          7.9700    1.9910   21.4164 H           1 EAA       0.0559
     22 H3         13.9194   -1.0204   21.8940 H           1 EAA       0.0432
     23 H4         13.5043   -1.8248   20.4062 H           1 EAA       0.0432
     24 H5         12.6248   -2.9680   22.4720 H           1 EAA       0.0253
     25 H6         11.3633   -2.5801   21.2862 H           1 EAA       0.0253
     26 H7         11.5418   -1.5958   22.7586 H           1 EAA       0.0253
     27 H8         11.8211    1.0490   19.1288 H           1 EAA       0.0460
     28 H9         12.2867   -0.5522   18.8048 H           1 EAA       0.0460
     29 H10         6.1717    3.7163   24.3027 H           1 EAA       0.0788
     30 H11         7.1583    5.1597   24.5602 H           1 EAA       0.0788
@<TRIPOS>BOND
     1     1     2   1
     2     1     3  ar
     3     1     9  ar
     4     2    16   1
     5     3     4   1
     6     3     5  ar
     7     5     6   1
     8     5     7  ar
     9     7     8  ar
    10     7    10   1
    11     8     9  ar
    12    10    11   2
    13    10    12   1
    14    12    13   1
    15    12    15   2
    16    13    14   1
    17    16    17   1
    18    17    18  ar
    19    17    19  ar
    20     8    20   1
    21     9    21   1
    22    13    22   1
    23    13    23   1
    24    14    24   1
    25    14    25   1
    26    14    26   1
    27    15    27   1
    28    15    28   1
    29    16    29   1
    30    16    30   1
@<TRIPOS>SUBSTRUCTURE
     1  EAA      1

