@<TRIPOS>MOLECULE
2gss_ligand_009
    30    30
SMALL
GAST_HUCK
****
This file was generated by PARSER (from files_GN.cpp)

@<TRIPOS>ATOM
      1 C1         11.0904    8.1569   22.5966 C.ar        1 EAA       0.1139
      2 O2          9.9720    7.9533   21.8206 O.3         1 EAA      -0.2994
      3 C2         11.2196    7.6353   23.9081 C.ar        1 EAA       0.0881
      4 CL1         9.9625    6.6700   24.5329 Cl          1 EAA      -0.0767
      5 C3         12.3799    7.9171   24.6745 C.ar        1 EAA       0.0650
      6 CL2        12.5309    7.3028   26.2567 Cl          1 EAA      -0.0667
      7 C4         13.4224    8.7064   24.1080 C.ar        1 EAA       0.0377
      8 C5         13.3064    9.1488   22.7712 C.ar        1 EAA      -0.0512
      9 C6         12.1534    8.8823   22.0291 C.ar        1 EAA      -0.0258
     10 C7         14.5722    9.0514   24.8171 C.2         1 EAA       0.1527
     11 O1         15.5215    8.2783   24.7646 O.2         1 EAA      -0.3720
     12 C8         14.6654   10.1898   25.5880 C.2         1 EAA       0.0058
     13 C9         15.4613   10.1938   26.8215 C.3         1 EAA      -0.0152
     14 C10        14.6120   10.3116   28.1092 C.3         1 EAA      -0.0548
     15 C11        14.0934   11.3452   25.1855 C.2         1 EAA      -0.0907
     16 C12         8.8353    8.7893   22.1488 C.3         1 EAA       0.1241
     17 C13         9.1248   10.2332   22.1783 C.2         1 EAA       0.0656
     18 O           9.2388   10.9265   21.0270 O.co2       1 EAA      -0.5662
     19 OXT         9.4854   10.8250   23.3391 O.co2       1 EAA      -0.5662
     20 H1         14.0584    9.6868   22.3334 H           1 EAA       0.0644
     21 H2         12.0755    9.2317   21.0776 H           1 EAA       0.0559
     22 H3         16.1593   11.0322   26.7941 H           1 EAA       0.0432
     23 H4         16.0594    9.2835   26.9065 H           1 EAA       0.0432
     24 H5         15.2625   10.2961   28.9868 H           1 EAA       0.0253
     25 H6         13.9174    9.4743   28.1751 H           1 EAA       0.0253
     26 H7         14.0451   11.2447   28.1234 H           1 EAA       0.0253
     27 H8         13.5810   11.4109   24.3403 H           1 EAA       0.0460
     28 H9         14.2003   12.1721   25.7169 H           1 EAA       0.0460
     29 H10         8.3991    8.4865   23.1037 H           1 EAA       0.0788
     30 H11         8.0778    8.6175   21.3857 H           1 EAA       0.0788
@<TRIPOS>BOND
     1     1     2   1
     2     1     3  ar
     3     1     9  ar
     4     2    16   1
     5     3     4   1
     6     3     5  ar
     7     5     6   1
     8     5     7  ar
     9     7     8  ar
    10     7    10   1
    11     8     9  ar
    12    10    11   2
    13    10    12   1
    14    12    13   1
    15    12    15   2
    16    13    14   1
    17    16    17   1
    18    17    18  ar
    19    17    19  ar
    20     8    20   1
    21     9    21   1
    22    13    22   1
    23    13    23   1
    24    14    24   1
    25    14    25   1
    26    14    26   1
    27    15    27   1
    28    15    28   1
    29    16    29   1
    30    16    30   1
@<TRIPOS>SUBSTRUCTURE
     1  EAA      1

