@<TRIPOS>MOLECULE
2gss_ligand_027
    30    30
SMALL
GAST_HUCK
****
This file was generated by PARSER (from files_GN.cpp)

@<TRIPOS>ATOM
      1 C1         10.9382    8.0095   21.9857 C.ar        1 EAA       0.1139
      2 O2         10.5579    7.8001   20.6826 O.3         1 EAA      -0.2994
      3 C2         10.2728    7.4299   23.0883 C.ar        1 EAA       0.0881
      4 CL1         8.9638    6.3889   22.7582 Cl          1 EAA      -0.0767
      5 C3         10.7572    7.6459   24.4163 C.ar        1 EAA       0.0650
      6 CL2         9.9903    6.8472   25.7100 Cl          1 EAA      -0.0667
      7 C4         11.9325    8.4305   24.6476 C.ar        1 EAA       0.0377
      8 C5         12.5889    8.9545   23.5104 C.ar        1 EAA      -0.0512
      9 C6         12.1073    8.7688   22.2062 C.ar        1 EAA      -0.0258
     10 C7         12.4580    8.6905   25.9231 C.2         1 EAA       0.1527
     11 O1         11.6844    8.9598   26.8259 O.2         1 EAA      -0.3720
     12 C8         13.7858    8.5829   26.2397 C.2         1 EAA       0.0058
     13 C9         14.4733    9.6244   27.0231 C.3         1 EAA      -0.0152
     14 C10        15.3217   10.5854   26.1546 C.3         1 EAA      -0.0548
     15 C11        14.4863    7.4972   25.8545 C.2         1 EAA      -0.0907
     16 C12         9.3771    8.5032   20.2215 C.3         1 EAA       0.1241
     17 C13         9.7427    9.4603   19.1754 C.2         1 EAA       0.0656
     18 O          10.6403   10.4392   19.4396 O.co2       1 EAA      -0.5662
     19 OXT         8.9465    9.6073   18.0730 O.co2       1 EAA      -0.5662
     20 H1         13.4457    9.5041   23.6223 H           1 EAA       0.0644
     21 H2         12.6257    9.1583   21.4092 H           1 EAA       0.0559
     22 H3         15.1392    9.1538   27.7612 H           1 EAA       0.0432
     23 H4         13.7806   10.2374   27.6008 H           1 EAA       0.0432
     24 H5         15.8681   11.2858   26.7942 H           1 EAA       0.0253
     25 H6         14.6785   11.1607   25.4905 H           1 EAA       0.0253
     26 H7         16.0444   10.0296   25.5540 H           1 EAA       0.0253
     27 H8         14.0462    6.7474   25.3911 H           1 EAA       0.0460
     28 H9         15.4459    7.3892   26.0856 H           1 EAA       0.0460
     29 H10         8.8442    9.0344   21.0229 H           1 EAA       0.0788
     30 H11         8.7091    7.7530   19.8051 H           1 EAA       0.0788
@<TRIPOS>BOND
     1     1     2   1
     2     1     3  ar
     3     1     9  ar
     4     2    16   1
     5     3     4   1
     6     3     5  ar
     7     5     6   1
     8     5     7  ar
     9     7     8  ar
    10     7    10   1
    11     8     9  ar
    12    10    11   2
    13    10    12   1
    14    12    13   1
    15    12    15   2
    16    13    14   1
    17    16    17   1
    18    17    18  ar
    19    17    19  ar
    20     8    20   1
    21     9    21   1
    22    13    22   1
    23    13    23   1
    24    14    24   1
    25    14    25   1
    26    14    26   1
    27    15    27   1
    28    15    28   1
    29    16    29   1
    30    16    30   1
@<TRIPOS>SUBSTRUCTURE
     1  EAA      1

