@<TRIPOS>MOLECULE
2gss_ligand_007
    30    30
SMALL
GAST_HUCK
****
This file was generated by PARSER (from files_GN.cpp)

@<TRIPOS>ATOM
      1 C1          3.1172    4.9097   33.4297 C.ar        1 EAA       0.1139
      2 O2          2.2025    5.9082   33.6636 O.3         1 EAA      -0.2994
      3 C2          3.0144    4.0847   32.2885 C.ar        1 EAA       0.0881
      4 CL1         1.7220    4.3696   31.2191 Cl          1 EAA      -0.0767
      5 C3          3.9608    3.0447   32.0615 C.ar        1 EAA       0.0650
      6 CL2         3.7268    1.9869   30.7462 Cl          1 EAA      -0.0667
      7 C4          5.0409    2.8479   32.9688 C.ar        1 EAA       0.0377
      8 C5          5.0812    3.6621   34.1358 C.ar        1 EAA      -0.0512
      9 C6          4.1332    4.6582   34.3724 C.ar        1 EAA      -0.0258
     10 C7          6.0745    1.9032   32.7750 C.2         1 EAA       0.1527
     11 O1          6.5344    1.3724   33.7834 O.2         1 EAA      -0.3720
     12 C8          6.7995    1.7313   31.6121 C.2         1 EAA       0.0058
     13 C9          7.2033    0.3963   31.1101 C.3         1 EAA      -0.0152
     14 C10         7.4620   -0.7387   32.1360 C.3         1 EAA      -0.0548
     15 C11         7.1295    2.8084   30.8689 C.2         1 EAA      -0.0907
     16 C12         2.6733    7.2622   33.4776 C.3         1 EAA       0.1241
     17 C13         2.8347    7.9221   34.7820 C.2         1 EAA       0.0656
     18 O           1.7517    8.3218   35.4836 O.co2       1 EAA      -0.5662
     19 OXT         4.0610    8.0805   35.3265 O.co2       1 EAA      -0.5662
     20 H1          5.8284    3.5393   34.8288 H           1 EAA       0.0644
     21 H2          4.1902    5.2150   35.2241 H           1 EAA       0.0559
     22 H3          8.1326    0.4783   30.5338 H           1 EAA       0.0432
     23 H4          6.4344    0.0515   30.4144 H           1 EAA       0.0432
     24 H5          7.8453   -1.6264   31.6311 H           1 EAA       0.0253
     25 H6          6.5373   -1.0097   32.6437 H           1 EAA       0.0253
     26 H7          8.1995   -0.4222   32.8729 H           1 EAA       0.0253
     27 H8          6.8989    3.7386   31.1520 H           1 EAA       0.0460
     28 H9          7.6227    2.7212   30.0057 H           1 EAA       0.0460
     29 H10         1.9163    7.8091   32.9153 H           1 EAA       0.0788
     30 H11         3.6070    7.3296   32.9082 H           1 EAA       0.0788
@<TRIPOS>BOND
     1     1     2   1
     2     1     3  ar
     3     1     9  ar
     4     2    16   1
     5     3     4   1
     6     3     5  ar
     7     5     6   1
     8     5     7  ar
     9     7     8  ar
    10     7    10   1
    11     8     9  ar
    12    10    11   2
    13    10    12   1
    14    12    13   1
    15    12    15   2
    16    13    14   1
    17    16    17   1
    18    17    18  ar
    19    17    19  ar
    20     8    20   1
    21     9    21   1
    22    13    22   1
    23    13    23   1
    24    14    24   1
    25    14    25   1
    26    14    26   1
    27    15    27   1
    28    15    28   1
    29    16    29   1
    30    16    30   1
@<TRIPOS>SUBSTRUCTURE
     1  EAA      1

