@<TRIPOS>MOLECULE
2gss_ligand_002
    30    30
SMALL
GAST_HUCK
****
This file was generated by PARSER (from files_GN.cpp)

@<TRIPOS>ATOM
      1 C1         12.0945    5.6693   26.0042 C.ar        1 EAA       0.1139
      2 O2         11.4833    4.5839   26.5852 O.3         1 EAA      -0.2994
      3 C2         11.4868    6.5059   25.0371 C.ar        1 EAA       0.0881
      4 CL1         9.9181    6.1238   24.5055 Cl          1 EAA      -0.0767
      5 C3         12.1989    7.6178   24.5109 C.ar        1 EAA       0.0650
      6 CL2        11.4639    8.6250   23.3490 Cl          1 EAA      -0.0667
      7 C4         13.5280    7.8814   24.9457 C.ar        1 EAA       0.0377
      8 C5         14.1351    6.9908   25.8595 C.ar        1 EAA      -0.0512
      9 C6         13.4265    5.9017   26.3795 C.ar        1 EAA      -0.0258
     10 C7         14.2868    8.9363   24.4574 C.2         1 EAA       0.1527
     11 O1         14.8211    8.8020   23.3644 O.2         1 EAA      -0.3720
     12 C8         14.4641   10.0969   25.1561 C.2         1 EAA       0.0058
     13 C9         15.2805   10.1235   26.3782 C.3         1 EAA      -0.0152
     14 C10        14.4280   10.2491   27.6637 C.3         1 EAA      -0.0548
     15 C11        13.9162   11.2379   24.6966 C.2         1 EAA      -0.0907
     16 C12        10.5435    4.8764   27.6435 C.3         1 EAA       0.1241
     17 C13        11.1006    5.6432   28.7758 C.2         1 EAA       0.0656
     18 O          12.0995    5.1232   29.5221 O.co2       1 EAA      -0.5662
     19 OXT        10.7339    6.9277   28.9881 O.co2       1 EAA      -0.5662
     20 H1         15.1103    7.1043   26.1416 H           1 EAA       0.0644
     21 H2         13.8832    5.2789   27.0487 H           1 EAA       0.0559
     22 H3         15.9826   10.9599   26.3380 H           1 EAA       0.0432
     23 H4         15.9000    9.2284   26.4665 H           1 EAA       0.0432
     24 H5         15.0801   10.2432   28.5394 H           1 EAA       0.0253
     25 H6         13.7282    9.4145   27.7425 H           1 EAA       0.0253
     26 H7         13.8647   11.1847   27.6580 H           1 EAA       0.0253
     27 H8         13.3768   11.2596   23.8614 H           1 EAA       0.0460
     28 H9         14.0546   12.0990   25.1756 H           1 EAA       0.0460
     29 H10        10.1911    3.9213   28.0346 H           1 EAA       0.0788
     30 H11         9.6718    5.3963   27.2441 H           1 EAA       0.0788
@<TRIPOS>BOND
     1     1     2   1
     2     1     3  ar
     3     1     9  ar
     4     2    16   1
     5     3     4   1
     6     3     5  ar
     7     5     6   1
     8     5     7  ar
     9     7     8  ar
    10     7    10   1
    11     8     9  ar
    12    10    11   2
    13    10    12   1
    14    12    13   1
    15    12    15   2
    16    13    14   1
    17    16    17   1
    18    17    18  ar
    19    17    19  ar
    20     8    20   1
    21     9    21   1
    22    13    22   1
    23    13    23   1
    24    14    24   1
    25    14    25   1
    26    14    26   1
    27    15    27   1
    28    15    28   1
    29    16    29   1
    30    16    30   1
@<TRIPOS>SUBSTRUCTURE
     1  EAA      1

