@<TRIPOS>MOLECULE
2gss_ligand_004
    30    30
SMALL
GAST_HUCK
****
This file was generated by PARSER (from files_GN.cpp)

@<TRIPOS>ATOM
      1 C1          9.2041    7.4617   27.6366 C.ar        1 EAA       0.1139
      2 O2          8.6686    7.1508   28.8636 O.3         1 EAA      -0.2994
      3 C2          8.4340    7.3631   26.4555 C.ar        1 EAA       0.0881
      4 CL1         6.7948    6.9322   26.5975 Cl          1 EAA      -0.0767
      5 C3          9.0257    7.6307   25.1894 C.ar        1 EAA       0.0650
      6 CL2         8.0725    7.5181   23.7769 Cl          1 EAA      -0.0667
      7 C4         10.3937    8.0170   25.1104 C.ar        1 EAA       0.0377
      8 C5         11.1525    8.0827   26.3012 C.ar        1 EAA      -0.0512
      9 C6         10.5695    7.7954   27.5446 C.ar        1 EAA      -0.0258
     10 C7         11.0326    8.2773   23.9036 C.2         1 EAA       0.1527
     11 O1         11.2152    7.3532   23.1188 O.2         1 EAA      -0.3720
     12 C8         11.3897    9.5334   23.5047 C.2         1 EAA       0.0058
     13 C9         10.4089   10.3377   22.7624 C.3         1 EAA      -0.0152
     14 C10        10.4521   11.8747   22.9659 C.3         1 EAA      -0.0548
     15 C11        12.6776    9.9041   23.6311 C.2         1 EAA      -0.0907
     16 C12         8.6358    8.1961   29.8619 C.3         1 EAA       0.1241
     17 C13         7.5513    9.1710   29.6506 C.2         1 EAA       0.0656
     18 O           6.5608    9.3128   30.5656 O.co2       1 EAA      -0.5662
     19 OXT         7.5817   10.0022   28.5846 O.co2       1 EAA      -0.5662
     20 H1         12.1489    8.3131   26.2808 H           1 EAA       0.0644
     21 H2         11.1471    7.8273   28.3870 H           1 EAA       0.0559
     22 H3          9.3982   10.0342   23.0430 H           1 EAA       0.0432
     23 H4         10.5155   10.1222   21.6950 H           1 EAA       0.0432
     24 H5          9.5805   12.3416   22.4905 H           1 EAA       0.0253
     25 H6         11.3499   12.3032   22.5199 H           1 EAA       0.0253
     26 H7         10.4261   12.1184   24.0281 H           1 EAA       0.0253
     27 H8         13.3491    9.3166   24.0745 H           1 EAA       0.0460
     28 H9         12.9967   10.7762   23.2892 H           1 EAA       0.0460
     29 H10         9.5881    8.7285   29.9287 H           1 EAA       0.0788
     30 H11         8.4762    7.7016   30.8208 H           1 EAA       0.0788
@<TRIPOS>BOND
     1     1     2   1
     2     1     3  ar
     3     1     9  ar
     4     2    16   1
     5     3     4   1
     6     3     5  ar
     7     5     6   1
     8     5     7  ar
     9     7     8  ar
    10     7    10   1
    11     8     9  ar
    12    10    11   2
    13    10    12   1
    14    12    13   1
    15    12    15   2
    16    13    14   1
    17    16    17   1
    18    17    18  ar
    19    17    19  ar
    20     8    20   1
    21     9    21   1
    22    13    22   1
    23    13    23   1
    24    14    24   1
    25    14    25   1
    26    14    26   1
    27    15    27   1
    28    15    28   1
    29    16    29   1
    30    16    30   1
@<TRIPOS>SUBSTRUCTURE
     1  EAA      1

