@<TRIPOS>MOLECULE
2gss_ligand_018
    30    30
SMALL
GAST_HUCK
****
This file was generated by PARSER (from files_GN.cpp)

@<TRIPOS>ATOM
      1 C1          9.6152    2.3323   25.7770 C.ar        1 EAA       0.1139
      2 O2          8.9061    2.7680   26.8654 O.3         1 EAA      -0.2994
      3 C2         10.0938    3.2279   24.7944 C.ar        1 EAA       0.0881
      4 CL1         9.6840    4.8730   24.9483 Cl          1 EAA      -0.0767
      5 C3         10.8616    2.7409   23.7065 C.ar        1 EAA       0.0650
      6 CL2        11.4505    3.8598   22.5676 Cl          1 EAA      -0.0667
      7 C4         11.0736    1.3414   23.5472 C.ar        1 EAA       0.0377
      8 C5         10.5264    0.4611   24.5103 C.ar        1 EAA      -0.0512
      9 C6          9.8183    0.9480   25.6184 C.ar        1 EAA      -0.0258
     10 C7         11.7518    0.7915   22.4552 C.2         1 EAA       0.1527
     11 O1         12.8622    1.2067   22.1441 O.2         1 EAA      -0.3720
     12 C8         11.1326   -0.0517   21.5783 C.2         1 EAA       0.0058
     13 C9         11.7000   -1.3844   21.3145 C.3         1 EAA      -0.0152
     14 C10        13.0883   -1.3428   20.6382 C.3         1 EAA      -0.0548
     15 C11         9.9853    0.3398   20.9874 C.2         1 EAA      -0.0907
     16 C12         9.6951    3.0112   28.0485 C.3         1 EAA       0.1241
     17 C13        10.4302    4.2846   28.0001 C.2         1 EAA       0.0656
     18 O          11.5499    4.3893   27.2529 O.co2       1 EAA      -0.5662
     19 OXT         9.7872    5.4273   28.3330 O.co2       1 EAA      -0.5662
     20 H1         10.6420   -0.5518   24.4229 H           1 EAA       0.0644
     21 H2          9.4461    0.2936   26.3078 H           1 EAA       0.0559
     22 H3         11.0461   -1.9753   20.6600 H           1 EAA       0.0432
     23 H4         11.7760   -1.9386   22.2561 H           1 EAA       0.0432
     24 H5         13.3891   -2.3526   20.3495 H           1 EAA       0.0253
     25 H6         13.8363   -0.9463   21.3272 H           1 EAA       0.0253
     26 H7         13.0561   -0.7197   19.7416 H           1 EAA       0.0253
     27 H8          9.5805    1.2287   21.1734 H           1 EAA       0.0460
     28 H9          9.5006   -0.2538   20.3553 H           1 EAA       0.0460
     29 H10        10.3848    2.1920   28.2665 H           1 EAA       0.0788
     30 H11         8.9873    3.0575   28.8796 H           1 EAA       0.0788
@<TRIPOS>BOND
     1     1     2   1
     2     1     3  ar
     3     1     9  ar
     4     2    16   1
     5     3     4   1
     6     3     5  ar
     7     5     6   1
     8     5     7  ar
     9     7     8  ar
    10     7    10   1
    11     8     9  ar
    12    10    11   2
    13    10    12   1
    14    12    13   1
    15    12    15   2
    16    13    14   1
    17    16    17   1
    18    17    18  ar
    19    17    19  ar
    20     8    20   1
    21     9    21   1
    22    13    22   1
    23    13    23   1
    24    14    24   1
    25    14    25   1
    26    14    26   1
    27    15    27   1
    28    15    28   1
    29    16    29   1
    30    16    30   1
@<TRIPOS>SUBSTRUCTURE
     1  EAA      1

