@<TRIPOS>MOLECULE
2gss_ligand_019
    30    30
SMALL
GAST_HUCK
****
This file was generated by PARSER (from files_GN.cpp)

@<TRIPOS>ATOM
      1 C1         10.0635    7.0356   26.2257 C.ar        1 EAA       0.1139
      2 O2          9.4415    6.1481   27.0796 O.3         1 EAA      -0.2994
      3 C2          9.7131    7.0550   24.8552 C.ar        1 EAA       0.0881
      4 CL1         8.4141    6.0803   24.3435 Cl          1 EAA      -0.0767
      5 C3         10.4361    7.8660   23.9393 C.ar        1 EAA       0.0650
      6 CL2         9.9750    7.8801   22.2957 Cl          1 EAA      -0.0667
      7 C4         11.5083    8.6840   24.4028 C.ar        1 EAA       0.0377
      8 C5         11.8245    8.6557   25.7828 C.ar        1 EAA      -0.0512
      9 C6         11.1267    7.8356   26.6724 C.ar        1 EAA      -0.0258
     10 C7         12.2816    9.4791   23.5502 C.2         1 EAA       0.1527
     11 O1         12.7608    9.0023   22.5251 O.2         1 EAA      -0.3720
     12 C8         12.5206   10.7984   23.7876 C.2         1 EAA       0.0058
     13 C9         11.4961   11.7812   23.4094 C.3         1 EAA      -0.0152
     14 C10        11.1756   11.8001   21.8914 C.3         1 EAA      -0.0548
     15 C11        13.6716   11.1641   24.3828 C.2         1 EAA      -0.0907
     16 C12         8.8276    6.6710   28.2755 C.3         1 EAA       0.1241
     17 C13         9.8270    7.1184   29.2644 C.2         1 EAA       0.0656
     18 O           9.8977    8.4217   29.6286 O.co2       1 EAA      -0.5662
     19 OXT        10.9106    6.3433   29.5274 O.co2       1 EAA      -0.5662
     20 H1         12.6083    9.1987   26.1533 H           1 EAA       0.0644
     21 H2         11.4220    7.8234   27.6430 H           1 EAA       0.0559
     22 H3         11.7956   12.7959   23.6915 H           1 EAA       0.0432
     23 H4         10.5707   11.5672   23.9516 H           1 EAA       0.0432
     24 H5         10.4905   12.6202   21.6737 H           1 EAA       0.0253
     25 H6         10.7007   10.8672   21.5816 H           1 EAA       0.0253
     26 H7         12.0871   11.9417   21.3097 H           1 EAA       0.0253
     27 H8         14.3617   10.4940   24.6321 H           1 EAA       0.0460
     28 H9         13.8534   12.1139   24.6110 H           1 EAA       0.0460
     29 H10         8.2649    5.8559   28.7347 H           1 EAA       0.0788
     30 H11         8.1231    7.4773   28.0470 H           1 EAA       0.0788
@<TRIPOS>BOND
     1     1     2   1
     2     1     3  ar
     3     1     9  ar
     4     2    16   1
     5     3     4   1
     6     3     5  ar
     7     5     6   1
     8     5     7  ar
     9     7     8  ar
    10     7    10   1
    11     8     9  ar
    12    10    11   2
    13    10    12   1
    14    12    13   1
    15    12    15   2
    16    13    14   1
    17    16    17   1
    18    17    18  ar
    19    17    19  ar
    20     8    20   1
    21     9    21   1
    22    13    22   1
    23    13    23   1
    24    14    24   1
    25    14    25   1
    26    14    26   1
    27    15    27   1
    28    15    28   1
    29    16    29   1
    30    16    30   1
@<TRIPOS>SUBSTRUCTURE
     1  EAA      1

