@<TRIPOS>MOLECULE
2gss_ligand_014
    30    30
SMALL
GAST_HUCK
****
This file was generated by PARSER (from files_GN.cpp)

@<TRIPOS>ATOM
      1 C1         11.3442    6.7425   25.8721 C.ar        1 EAA       0.1139
      2 O2         10.2163    5.9864   26.0686 O.3         1 EAA      -0.2994
      3 C2         12.6639    6.2423   25.9797 C.ar        1 EAA       0.0881
      4 CL1        12.8532    4.5817   26.2898 Cl          1 EAA      -0.0767
      5 C3         13.7762    7.1070   25.8089 C.ar        1 EAA       0.0650
      6 CL2        15.3397    6.4625   26.0221 Cl          1 EAA      -0.0667
      7 C4         13.5797    8.4962   25.5231 C.ar        1 EAA       0.0377
      8 C5         12.2426    8.9414   25.3451 C.ar        1 EAA      -0.0512
      9 C6         11.1523    8.0759   25.4980 C.ar        1 EAA      -0.0258
     10 C7         14.6223    9.4309   25.3983 C.2         1 EAA       0.1527
     11 O1         15.7186    9.1058   24.9522 O.2         1 EAA      -0.3720
     12 C8         14.5532   10.6972   25.9062 C.2         1 EAA       0.0058
     13 C9         15.0825   11.0126   27.2377 C.3         1 EAA      -0.0152
     14 C10        15.0815    9.8688   28.2886 C.3         1 EAA      -0.0548
     15 C11        14.1364   11.7031   25.1046 C.2         1 EAA      -0.0907
     16 C12         9.7943    5.7969   27.4396 C.3         1 EAA       0.1241
     17 C13         9.5554    7.0343   28.2173 C.2         1 EAA       0.0656
     18 O           8.7274    7.9954   27.7559 O.co2       1 EAA      -0.5662
     19 OXT        10.3129    7.3063   29.3049 O.co2       1 EAA      -0.5662
     20 H1         12.0400    9.9075   25.0910 H           1 EAA       0.0644
     21 H2         10.2055    8.4282   25.3435 H           1 EAA       0.0559
     22 H3         14.5085   11.8312   27.6856 H           1 EAA       0.0432
     23 H4         16.1135   11.3646   27.1250 H           1 EAA       0.0432
     24 H5         15.4708   10.2365   29.2454 H           1 EAA       0.0253
     25 H6         15.7131    9.0359   27.9638 H           1 EAA       0.0253
     26 H7         14.0639    9.5024   28.4485 H           1 EAA       0.0253
     27 H8         13.8308   11.5357   24.1733 H           1 EAA       0.0460
     28 H9         14.1121   12.6445   25.4283 H           1 EAA       0.0460
     29 H10        10.5188    5.1746   27.9651 H           1 EAA       0.0788
     30 H11         8.8534    5.2384   27.4138 H           1 EAA       0.0788
@<TRIPOS>BOND
     1     1     2   1
     2     1     3  ar
     3     1     9  ar
     4     2    16   1
     5     3     4   1
     6     3     5  ar
     7     5     6   1
     8     5     7  ar
     9     7     8  ar
    10     7    10   1
    11     8     9  ar
    12    10    11   2
    13    10    12   1
    14    12    13   1
    15    12    15   2
    16    13    14   1
    17    16    17   1
    18    17    18  ar
    19    17    19  ar
    20     8    20   1
    21     9    21   1
    22    13    22   1
    23    13    23   1
    24    14    24   1
    25    14    25   1
    26    14    26   1
    27    15    27   1
    28    15    28   1
    29    16    29   1
    30    16    30   1
@<TRIPOS>SUBSTRUCTURE
     1  EAA      1

