@<TRIPOS>MOLECULE
2hb1_ligand_001
    17    17
SMALL
GAST_HUCK
****
This file was generated by PARSER (from files_GN.cpp)

@<TRIPOS>ATOM
      1 C1         46.6515   12.7633    3.9687 C.2         1 MOL       0.0087
      2 C2         46.0124   13.4051    2.8993 C.2         1 MOL       0.0393
      3 S3         46.6956   13.8631    5.2809 S.3         1 MOL      -0.0433
      4 C4         45.8721   15.1475    4.4940 C.2         1 MOL       0.0786
      5 C5         45.5717   14.7091    3.1973 C.2         1 MOL       0.0981
      6 C6         45.6177   16.4099    5.0431 C.2         1 MOL       0.0529
      7 O7         46.5824   17.0822    5.7265 O.co2       1 MOL      -0.5709
      8 O8         45.0591   15.5620    2.2692 O.3         1 MOL      -0.3150
      9 C9         43.6743   15.3675    1.9604 C.3         1 MOL       0.1194
     10 C10        43.2085   16.6128    1.3290 C.2         1 MOL       0.0649
     11 O13        42.9287   16.6788    0.0055 O.co2       1 MOL      -0.5663
     12 O14        44.3357   16.8288    5.1977 O.co2       1 MOL      -0.5709
     13 O15        43.1538   17.7383    2.0729 O.co2       1 MOL      -0.5663
     14 BR19       45.8358   12.5840    1.2431 Br          1 MOL      -0.0693
     15 H1         47.0416   11.8177    3.9684 H           1 MOL       0.0841
     16 H2         43.0582   15.1824    2.8390 H           1 MOL       0.0780
     17 H3         43.5653   14.5359    1.2538 H           1 MOL       0.0780
@<TRIPOS>BOND
     1     1     2   2
     2     1     3   1
     3     2     5   1
     4     2    14   1
     5     3     4   1
     6     4     5   2
     7     4     6   1
     8     5     8   1
     9     6     7  ar
    10     6    12  ar
    11     8     9   1
    12     9    10   1
    13    10    11  ar
    14    10    13  ar
    15     1    15   1
    16     9    16   1
    17     9    17   1
@<TRIPOS>SUBSTRUCTURE
     1  MOL      1

