@<TRIPOS>MOLECULE
2hb1_ligand_014
    17    17
SMALL
GAST_HUCK
****
This file was generated by PARSER (from files_GN.cpp)

@<TRIPOS>ATOM
      1 C1         46.4052   11.4745    2.9196 C.2         1 MOL       0.0087
      2 C2         46.0789   12.0314    4.1581 C.2         1 MOL       0.0393
      3 S3         47.3830   12.6133    2.0867 S.3         1 MOL      -0.0433
      4 C4         47.4039   13.7955    3.3351 C.2         1 MOL       0.0786
      5 C5         46.6214   13.3124    4.3902 C.2         1 MOL       0.0981
      6 C6         47.9953   15.0533    3.2507 C.2         1 MOL       0.0529
      7 O7         49.1412   15.3176    3.9121 O.co2       1 MOL      -0.5709
      8 O8         46.3691   14.0475    5.5189 O.3         1 MOL      -0.3150
      9 C9         45.2716   14.9818    5.4063 C.3         1 MOL       0.1194
     10 C10        45.6956   16.3811    5.5752 C.2         1 MOL       0.0649
     11 O13        44.7975   17.3809    5.4546 O.co2       1 MOL      -0.5663
     12 O14        47.3936   16.0264    2.5357 O.co2       1 MOL      -0.5709
     13 O15        46.9376   16.7073    5.9863 O.co2       1 MOL      -0.5663
     14 BR19       44.9541   11.1716    5.3612 Br          1 MOL      -0.0693
     15 H1         46.1021   10.5714    2.5534 H           1 MOL       0.0841
     16 H2         44.5815   14.7445    6.2136 H           1 MOL       0.0780
     17 H3         44.7220   14.9019    4.4606 H           1 MOL       0.0780
@<TRIPOS>BOND
     1     1     2   2
     2     1     3   1
     3     2     5   1
     4     2    14   1
     5     3     4   1
     6     4     5   2
     7     4     6   1
     8     5     8   1
     9     6     7  ar
    10     6    12  ar
    11     8     9   1
    12     9    10   1
    13    10    11  ar
    14    10    13  ar
    15     1    15   1
    16     9    16   1
    17     9    17   1
@<TRIPOS>SUBSTRUCTURE
     1  MOL      1

