@<TRIPOS>MOLECULE
2hb1_ligand_016
    17    17
SMALL
GAST_HUCK
****
This file was generated by PARSER (from files_GN.cpp)

@<TRIPOS>ATOM
      1 C1         43.9639   15.8176    0.2004 C.2         1 MOL       0.0087
      2 C2         44.3017   16.0424    1.5350 C.2         1 MOL       0.0393
      3 S3         44.8447   16.9445   -0.7483 S.3         1 MOL      -0.0433
      4 C4         45.6599   17.7158    0.5578 C.2         1 MOL       0.0786
      5 C5         45.2455   17.0705    1.7358 C.2         1 MOL       0.0981
      6 C6         46.5542   18.7905    0.4165 C.2         1 MOL       0.0529
      7 O7         46.1435   20.0000   -0.0254 O.co2       1 MOL      -0.5709
      8 O8         45.6681   17.4323    2.9855 O.3         1 MOL      -0.3150
      9 C9         46.9087   16.8089    3.3673 C.3         1 MOL       0.1194
     10 C10        47.2089   17.1932    4.7517 C.2         1 MOL       0.0649
     11 O13        47.9818   18.2738    5.0048 O.co2       1 MOL      -0.5663
     12 O14        47.8657   18.6378    0.7087 O.co2       1 MOL      -0.5709
     13 O15        46.7167   16.4867    5.7935 O.co2       1 MOL      -0.5663
     14 BR19       43.5475   15.0565    2.9193 Br          1 MOL      -0.0693
     15 H1         43.3067   15.1209   -0.1523 H           1 MOL       0.0841
     16 H2         47.7245   17.1331    2.7134 H           1 MOL       0.0780
     17 H3         46.8357   15.7186    3.3229 H           1 MOL       0.0780
@<TRIPOS>BOND
     1     1     2   2
     2     1     3   1
     3     2     5   1
     4     2    14   1
     5     3     4   1
     6     4     5   2
     7     4     6   1
     8     5     8   1
     9     6     7  ar
    10     6    12  ar
    11     8     9   1
    12     9    10   1
    13    10    11  ar
    14    10    13  ar
    15     1    15   1
    16     9    16   1
    17     9    17   1
@<TRIPOS>SUBSTRUCTURE
     1  MOL      1

