@<TRIPOS>MOLECULE
2hb1_ligand_015
    17    17
SMALL
GAST_HUCK
****
This file was generated by PARSER (from files_GN.cpp)

@<TRIPOS>ATOM
      1 C1         49.1201   16.4492    5.0970 C.2         1 MOL       0.0087
      2 C2         48.7857   15.2764    4.4134 C.2         1 MOL       0.0393
      3 S3         47.6644   17.3564    5.2583 S.3         1 MOL      -0.0433
      4 C4         46.6328   16.2349    4.4673 C.2         1 MOL       0.0786
      5 C5         47.4234   15.1385    4.0903 C.2         1 MOL       0.0981
      6 C6         45.2845   16.4988    4.2064 C.2         1 MOL       0.0529
      7 O7         44.6637   15.9380    3.1562 O.co2       1 MOL      -0.5709
      8 O8         46.9512   14.0145    3.4400 O.3         1 MOL      -0.3150
      9 C9         46.6821   12.9262    4.3650 C.3         1 MOL       0.1194
     10 C10        46.4809   11.7027    3.5977 C.2         1 MOL       0.0649
     11 O13        47.5442   10.9968    3.1436 O.co2       1 MOL      -0.5663
     12 O14        44.5770   17.2533    5.0810 O.co2       1 MOL      -0.5709
     13 O15        45.2570   11.3925    3.1053 O.co2       1 MOL      -0.5663
     14 BR19       50.1020   14.0000    4.0918 Br          1 MOL      -0.0693
     15 H1         50.0339   16.7222    5.4340 H           1 MOL       0.0841
     16 H2         45.7985   13.1479    4.9640 H           1 MOL       0.0780
     17 H3         47.5186   12.7502    5.0524 H           1 MOL       0.0780
@<TRIPOS>BOND
     1     1     2   2
     2     1     3   1
     3     2     5   1
     4     2    14   1
     5     3     4   1
     6     4     5   2
     7     4     6   1
     8     5     8   1
     9     6     7  ar
    10     6    12  ar
    11     8     9   1
    12     9    10   1
    13    10    11  ar
    14    10    13  ar
    15     1    15   1
    16     9    16   1
    17     9    17   1
@<TRIPOS>SUBSTRUCTURE
     1  MOL      1

