@<TRIPOS>MOLECULE
2hb1_ligand_005
    17    17
SMALL
GAST_HUCK
****
This file was generated by PARSER (from files_GN.cpp)

@<TRIPOS>ATOM
      1 C1         44.0988   14.1448    0.8813 C.2         1 MOL       0.0087
      2 C2         44.8622   15.0038    1.6715 C.2         1 MOL       0.0393
      3 S3         44.4906   12.5390    1.3435 S.3         1 MOL      -0.0433
      4 C4         45.6334   12.9515    2.5626 C.2         1 MOL       0.0786
      5 C5         45.6878   14.3560    2.6118 C.2         1 MOL       0.0981
      6 C6         46.3641   12.0207    3.3218 C.2         1 MOL       0.0529
      7 O7         47.2385   12.4146    4.2753 O.co2       1 MOL      -0.5709
      8 O8         46.5114   15.0441    3.4593 O.3         1 MOL      -0.3150
      9 C9         46.0654   15.1109    4.8294 C.3         1 MOL       0.1194
     10 C10        45.7235   16.4925    5.2081 C.2         1 MOL       0.0649
     11 O13        46.6133   17.1924    5.9451 O.co2       1 MOL      -0.5663
     12 O14        46.2317   10.6936    3.1024 O.co2       1 MOL      -0.5709
     13 O15        44.4282   16.8736    5.2864 O.co2       1 MOL      -0.5663
     14 BR19       44.7969   16.8487    1.4579 Br          1 MOL      -0.0693
     15 H1         43.4423   14.4136    0.1478 H           1 MOL       0.0841
     16 H2         46.9114   14.7839    5.4354 H           1 MOL       0.0780
     17 H3         45.2335   14.4380    5.0607 H           1 MOL       0.0780
@<TRIPOS>BOND
     1     1     2   2
     2     1     3   1
     3     2     5   1
     4     2    14   1
     5     3     4   1
     6     4     5   2
     7     4     6   1
     8     5     8   1
     9     6     7  ar
    10     6    12  ar
    11     8     9   1
    12     9    10   1
    13    10    11  ar
    14    10    13  ar
    15     1    15   1
    16     9    16   1
    17     9    17   1
@<TRIPOS>SUBSTRUCTURE
     1  MOL      1

