@<TRIPOS>MOLECULE
2hb1_ligand_003
    17    17
SMALL
GAST_HUCK
****
This file was generated by PARSER (from files_GN.cpp)

@<TRIPOS>ATOM
      1 C1         44.8108   13.4086    2.2471 C.2         1 MOL       0.0087
      2 C2         46.0844   13.4223    2.8205 C.2         1 MOL       0.0393
      3 S3         43.9950   14.8254    2.7682 S.3         1 MOL      -0.0433
      4 C4         45.2880   15.4603    3.7072 C.2         1 MOL       0.0786
      5 C5         46.3625   14.5625    3.6084 C.2         1 MOL       0.0981
      6 C6         45.2211   16.6595    4.4239 C.2         1 MOL       0.0529
      7 O7         46.2755   17.4961    4.5145 O.co2       1 MOL      -0.5709
      8 O8         47.5022   14.7412    4.3516 O.3         1 MOL      -0.3150
      9 C9         48.5863   15.3986    3.6679 C.3         1 MOL       0.1194
     10 C10        49.3784   16.2107    4.6030 C.2         1 MOL       0.0649
     11 O13        48.7613   16.9463    5.5555 O.co2       1 MOL      -0.5663
     12 O14        44.0789   17.0013    5.0524 O.co2       1 MOL      -0.5709
     13 O15        50.5881   16.6519    4.1944 O.co2       1 MOL      -0.5663
     14 BR19       47.2586   12.0039    2.5825 Br          1 MOL      -0.0693
     15 H1         44.4105   12.6864    1.6444 H           1 MOL       0.0841
     16 H2         48.2451   16.0572    2.8613 H           1 MOL       0.0780
     17 H3         49.2344   14.6326    3.2421 H           1 MOL       0.0780
@<TRIPOS>BOND
     1     1     2   2
     2     1     3   1
     3     2     5   1
     4     2    14   1
     5     3     4   1
     6     4     5   2
     7     4     6   1
     8     5     8   1
     9     6     7  ar
    10     6    12  ar
    11     8     9   1
    12     9    10   1
    13    10    11  ar
    14    10    13  ar
    15     1    15   1
    16     9    16   1
    17     9    17   1
@<TRIPOS>SUBSTRUCTURE
     1  MOL      1

