@<TRIPOS>MOLECULE
2hb1_ligand_008
    17    17
SMALL
GAST_HUCK
****
This file was generated by PARSER (from files_GN.cpp)

@<TRIPOS>ATOM
      1 C1         44.0106   16.0114    1.8811 C.2         1 MOL       0.0087
      2 C2         44.5447   14.7449    2.0529 C.2         1 MOL       0.0393
      3 S3         44.3988   16.9336    3.2951 S.3         1 MOL      -0.0433
      4 C4         45.1942   15.6529    4.1491 C.2         1 MOL       0.0786
      5 C5         45.2089   14.5412    3.2948 C.2         1 MOL       0.0981
      6 C6         45.7418   15.7267    5.4299 C.2         1 MOL       0.0529
      7 O7         45.7897   14.6319    6.2288 O.co2       1 MOL      -0.5709
      8 O8         45.8655   13.3971    3.6365 O.3         1 MOL      -0.3150
      9 C9         47.2975   13.4098    3.4337 C.3         1 MOL       0.1194
     10 C10        48.0029   14.6824    3.6698 C.2         1 MOL       0.0649
     11 O13        48.3964   15.0127    4.9258 O.co2       1 MOL      -0.5663
     12 O14        46.2747   16.8928    5.9035 O.co2       1 MOL      -0.5709
     13 O15        47.7723   15.7205    2.8249 O.co2       1 MOL      -0.5663
     14 BR19       44.4201   13.4358    0.7443 Br          1 MOL      -0.0693
     15 H1         43.5062   16.3602    1.0814 H           1 MOL       0.0841
     16 H2         47.5283   13.0541    2.4239 H           1 MOL       0.0780
     17 H3         47.7064   12.6655    4.1360 H           1 MOL       0.0780
@<TRIPOS>BOND
     1     1     2   2
     2     1     3   1
     3     2     5   1
     4     2    14   1
     5     3     4   1
     6     4     5   2
     7     4     6   1
     8     5     8   1
     9     6     7  ar
    10     6    12  ar
    11     8     9   1
    12     9    10   1
    13    10    11  ar
    14    10    13  ar
    15     1    15   1
    16     9    16   1
    17     9    17   1
@<TRIPOS>SUBSTRUCTURE
     1  MOL      1

