@<TRIPOS>MOLECULE
2hb1_ligand_012
    17    17
SMALL
GAST_HUCK
****
This file was generated by PARSER (from files_GN.cpp)

@<TRIPOS>ATOM
      1 C1         47.1489   12.6773    3.8781 C.2         1 MOL       0.0087
      2 C2         46.9423   14.0355    3.6445 C.2         1 MOL       0.0393
      3 S3         46.0279   11.8079    2.9114 S.3         1 MOL      -0.0433
      4 C4         45.2584   13.1852    2.2141 C.2         1 MOL       0.0786
      5 C5         45.8745   14.3219    2.7654 C.2         1 MOL       0.0981
      6 C6         44.2252   13.1245    1.2661 C.2         1 MOL       0.0529
      7 O7         43.7811   11.9302    0.8174 O.co2       1 MOL      -0.5709
      8 O8         45.5094   15.6170    2.4726 O.3         1 MOL      -0.3150
      9 C9         44.4770   16.1611    3.3283 C.3         1 MOL       0.1194
     10 C10        44.8515   16.2071    4.7578 C.2         1 MOL       0.0649
     11 O13        45.0015   15.0619    5.4649 O.co2       1 MOL      -0.5663
     12 O14        43.7676   14.2413    0.6511 O.co2       1 MOL      -0.5709
     13 O15        45.1955   17.3748    5.3415 O.co2       1 MOL      -0.5663
     14 BR19       47.9950   15.3578    4.4251 Br          1 MOL      -0.0693
     15 H1         47.8457   12.2607    4.4956 H           1 MOL       0.0841
     16 H2         43.5302   15.6200    3.2161 H           1 MOL       0.0780
     17 H3         44.3021   17.1801    2.9880 H           1 MOL       0.0780
@<TRIPOS>BOND
     1     1     2   2
     2     1     3   1
     3     2     5   1
     4     2    14   1
     5     3     4   1
     6     4     5   2
     7     4     6   1
     8     5     8   1
     9     6     7  ar
    10     6    12  ar
    11     8     9   1
    12     9    10   1
    13    10    11  ar
    14    10    13  ar
    15     1    15   1
    16     9    16   1
    17     9    17   1
@<TRIPOS>SUBSTRUCTURE
     1  MOL      1

