@<TRIPOS>MOLECULE
2hb1_ligand_004
    17    17
SMALL
GAST_HUCK
****
This file was generated by PARSER (from files_GN.cpp)

@<TRIPOS>ATOM
      1 C1         45.1627   13.7833    1.2705 C.2         1 MOL       0.0087
      2 C2         45.0239   15.0980    1.7413 C.2         1 MOL       0.0393
      3 S3         45.8207   12.8422    2.5377 S.3         1 MOL      -0.0433
      4 C4         45.9114   14.1217    3.6970 C.2         1 MOL       0.0786
      5 C5         45.4363   15.2887    3.0689 C.2         1 MOL       0.0981
      6 C6         46.3656   13.9568    4.9998 C.2         1 MOL       0.0529
      7 O7         47.7154   13.9294    5.2267 O.co2       1 MOL      -0.5709
      8 O8         45.3584   16.5279    3.6662 O.3         1 MOL      -0.3150
      9 C9         46.5728   17.2859    3.6686 C.3         1 MOL       0.1194
     10 C10        47.2788   17.1763    4.9512 C.2         1 MOL       0.0649
     11 O13        46.6046   16.8362    6.0692 O.co2       1 MOL      -0.5663
     12 O14        45.5235   14.0846    6.0552 O.co2       1 MOL      -0.5709
     13 O15        48.4936   17.7805    5.1204 O.co2       1 MOL      -0.5663
     14 BR19       44.3464   16.4533    0.6749 Br          1 MOL      -0.0693
     15 H1         44.9085   13.4427    0.3408 H           1 MOL       0.0841
     16 H2         46.2891   18.3402    3.5474 H           1 MOL       0.0780
     17 H3         47.2513   17.0306    2.8423 H           1 MOL       0.0780
@<TRIPOS>BOND
     1     1     2   2
     2     1     3   1
     3     2     5   1
     4     2    14   1
     5     3     4   1
     6     4     5   2
     7     4     6   1
     8     5     8   1
     9     6     7  ar
    10     6    12  ar
    11     8     9   1
    12     9    10   1
    13    10    11  ar
    14    10    13  ar
    15     1    15   1
    16     9    16   1
    17     9    17   1
@<TRIPOS>SUBSTRUCTURE
     1  MOL      1

