@<TRIPOS>MOLECULE
2hb1_ligand_009
    17    17
SMALL
GAST_HUCK
****
This file was generated by PARSER (from files_GN.cpp)

@<TRIPOS>ATOM
      1 C1         43.9938   16.0634    2.0209 C.2         1 MOL       0.0087
      2 C2         44.8943   15.0028    1.9376 C.2         1 MOL       0.0393
      3 S3         44.1316   16.7272    3.5973 S.3         1 MOL      -0.0433
      4 C4         45.3320   15.6402    4.1775 C.2         1 MOL       0.0786
      5 C5         45.6224   14.7563    3.1211 C.2         1 MOL       0.0981
      6 C6         45.8769   15.6735    5.4734 C.2         1 MOL       0.0529
      7 O7         46.4205   16.8059    5.9807 O.co2       1 MOL      -0.5709
      8 O8         46.6117   13.8129    3.1640 O.3         1 MOL      -0.3150
      9 C9         46.1488   12.4609    3.3454 C.3         1 MOL       0.1194
     10 C10        47.0961   11.5190    2.7381 C.2         1 MOL       0.0649
     11 O13        47.0777   10.2233    3.1186 O.co2       1 MOL      -0.5663
     12 O14        45.8238   14.5838    6.2703 O.co2       1 MOL      -0.5709
     13 O15        47.7499   11.8332    1.5949 O.co2       1 MOL      -0.5663
     14 BR19       45.1067   14.0275    0.3673 Br          1 MOL      -0.0693
     15 H1         43.3774   16.3980    1.2798 H           1 MOL       0.0841
     16 H2         45.1724   12.2948    2.8813 H           1 MOL       0.0780
     17 H3         46.0764   12.2381    4.4113 H           1 MOL       0.0780
@<TRIPOS>BOND
     1     1     2   2
     2     1     3   1
     3     2     5   1
     4     2    14   1
     5     3     4   1
     6     4     5   2
     7     4     6   1
     8     5     8   1
     9     6     7  ar
    10     6    12  ar
    11     8     9   1
    12     9    10   1
    13    10    11  ar
    14    10    13  ar
    15     1    15   1
    16     9    16   1
    17     9    17   1
@<TRIPOS>SUBSTRUCTURE
     1  MOL      1

