@<TRIPOS>MOLECULE
2iwx_ligand_035
    45    46
SMALL
GAST_HUCK
****
This file was generated by PARSER (from files_GN.cpp)

@<TRIPOS>ATOM
      1 C1         64.2522   79.9585   -3.9126 C.2         1 M1S       0.2450
      2 C2         63.4502   81.0977   -3.6467 C.ar        1 M1S       0.0836
      3 C3         63.4896   81.6609   -2.3451 C.ar        1 M1S       0.0971
      4 C4         62.7029   82.7749   -2.0260 C.ar        1 M1S      -0.0045
      5 C5         61.8560   83.3486   -2.9873 C.ar        1 M1S       0.0932
      6 C6         61.8030   82.8061   -4.2895 C.ar        1 M1S       0.0655
      7 C7         62.6087   81.6818   -4.6454 C.ar        1 M1S      -0.0054
      8 C8         62.5899   81.1458   -6.0516 C.3         1 M1S       0.0540
      9 C9         61.6078   80.1028   -6.3386 C.2         1 M1S       0.1171
     10 C10        60.5509   79.6855   -5.4155 C.3         1 M1S       0.0232
     11 C11        59.6834   78.4794   -5.8780 C.3         1 M1S      -0.0368
     12 C12        58.5506   78.0781   -4.8939 C.3         1 M1S      -0.0494
     13 C13        58.9815   77.5523   -3.4947 C.3         1 M1S      -0.0463
     14 C14        59.8836   76.2800   -3.4989 C.3         1 M1S      -0.0365
     15 C15        61.2980   76.5662   -3.3028 C.2         1 M1S      -0.0986
     16 C16        62.2651   76.2648   -4.1828 C.2         1 M1S      -0.0962
     17 C17        63.6828   76.4721   -3.9246 C.3         1 M1S      -0.0086
     18 C18        64.2919   77.5951   -4.7933 C.3         1 M1S       0.0814
     19 O2         65.5704   79.9719   -3.6068 O.2         1 M1S      -0.3725
     20 O3         64.2670   81.1549   -1.3545 O.3         1 M1S      -0.3313
     21 O4         61.1078   84.4244   -2.6197 O.3         1 M1S      -0.3330
     22 CL1        60.7165   83.5348   -5.3723 Cl          1 M1S      -0.0932
     23 O5         61.6828   79.5858   -7.4459 O.2         1 M1S      -0.3883
     24 O1         63.6857   78.8488   -4.4550 O.3         1 M1S      -0.2800
     25 H1         62.7470   83.1619   -1.0796 H           1 M1S       0.0425
     26 H2         63.5805   80.7570   -6.2988 H           1 M1S       0.0663
     27 H3         62.4438   81.9608   -6.7617 H           1 M1S       0.0663
     28 H4         59.8896   80.5395   -5.2487 H           1 M1S       0.0495
     29 H5         61.0106   79.4220   -4.4617 H           1 M1S       0.0495
     30 H6         60.3264   77.6142   -6.0554 H           1 M1S       0.0290
     31 H7         59.2121   78.7370   -6.8317 H           1 M1S       0.0290
     32 H8         57.9465   77.3018   -5.3740 H           1 M1S       0.0268
     33 H9         57.8973   78.9435   -4.7484 H           1 M1S       0.0268
     34 H10        58.0608   77.3065   -2.9564 H           1 M1S       0.0285
     35 H11        59.4541   78.3612   -2.9316 H           1 M1S       0.0285
     36 H12        59.7110   75.7071   -4.4143 H           1 M1S       0.0388
     37 H13        59.5805   75.6343   -2.6702 H           1 M1S       0.0388
     38 H14        61.5550   76.9866   -2.4381 H           1 M1S       0.0450
     39 H15        62.0155   75.8691   -5.0605 H           1 M1S       0.0451
     40 H16        64.2102   75.5385   -4.1322 H           1 M1S       0.0414
     41 H17        63.8666   76.7185   -2.8755 H           1 M1S       0.0414
     42 H18        64.1187   77.3964   -5.8539 H           1 M1S       0.0631
     43 H19        65.3722   77.6256   -4.6304 H           1 M1S       0.0631
     44 H20        65.1083   81.6502   -1.4472 H           1 M1S       0.2508
     45 H21        60.2728   84.0490   -2.2612 H           1 M1S       0.2502
@<TRIPOS>BOND
     1     1     2   1
     2     1    19   2
     3     1    24   1
     4     2     3  ar
     5     2     7  ar
     6     3     4  ar
     7     3    20   1
     8     4     5  ar
     9     5     6  ar
    10     5    21   1
    11     6     7  ar
    12     6    22   1
    13     7     8   1
    14     8     9   1
    15     9    10   1
    16     9    23   2
    17    10    11   1
    18    11    12   1
    19    12    13   1
    20    13    14   1
    21    14    15   1
    22    15    16   2
    23    16    17   1
    24    17    18   1
    25    18    24   1
    26     4    25   1
    27     8    26   1
    28     8    27   1
    29    10    28   1
    30    10    29   1
    31    11    30   1
    32    11    31   1
    33    12    32   1
    34    12    33   1
    35    13    34   1
    36    13    35   1
    37    14    36   1
    38    14    37   1
    39    15    38   1
    40    16    39   1
    41    17    40   1
    42    17    41   1
    43    18    42   1
    44    18    43   1
    45    20    44   1
    46    21    45   1
@<TRIPOS>SUBSTRUCTURE
     1  M1S      1

