@<TRIPOS>MOLECULE
2iwx_ligand_045
    45    46
SMALL
GAST_HUCK
****
This file was generated by PARSER (from files_GN.cpp)

@<TRIPOS>ATOM
      1 C1         62.0620   77.9449   -1.0717 C.2         1 M1S       0.2450
      2 C2         61.4563   76.8458   -0.4184 C.ar        1 M1S       0.0836
      3 C3         62.2919   75.9585    0.3039 C.ar        1 M1S       0.0971
      4 C4         61.7547   74.8337    0.9418 C.ar        1 M1S      -0.0045
      5 C5         60.3808   74.5758    0.8828 C.ar        1 M1S       0.0932
      6 C6         59.5269   75.4408    0.1690 C.ar        1 M1S       0.0655
      7 C7         60.0501   76.5923   -0.4843 C.ar        1 M1S      -0.0054
      8 C8         59.1244   77.5385   -1.1918 C.3         1 M1S       0.0540
      9 C9         58.8801   77.2940   -2.6092 C.2         1 M1S       0.1171
     10 C10        59.3167   76.0906   -3.3150 C.3         1 M1S       0.0232
     11 C11        59.0398   76.0646   -4.8446 C.3         1 M1S      -0.0368
     12 C12        59.4811   74.7617   -5.5627 C.3         1 M1S      -0.0494
     13 C13        61.0009   74.4334   -5.5792 C.3         1 M1S      -0.0463
     14 C14        61.9112   75.5064   -6.2518 C.3         1 M1S      -0.0365
     15 C15        62.5884   76.3759   -5.3015 C.2         1 M1S      -0.0986
     16 C16        62.4402   77.7109   -5.2496 C.2         1 M1S      -0.0962
     17 C17        63.2003   78.5722   -4.3552 C.3         1 M1S      -0.0086
     18 C18        62.3285   79.1993   -3.2426 C.3         1 M1S       0.0814
     19 O2         62.9281   78.7343   -0.3984 O.2         1 M1S      -0.3725
     20 O3         63.6359   76.1152    0.3921 O.3         1 M1S      -0.3313
     21 O4         59.9063   73.4812    1.5216 O.3         1 M1S      -0.3330
     22 CL1        57.8742   75.0433    0.1076 Cl          1 M1S      -0.0932
     23 O5         58.2393   78.1501   -3.2080 O.2         1 M1S      -0.3883
     24 O1         61.8134   78.1695   -2.3881 O.3         1 M1S      -0.2800
     25 H1         62.3671   74.1977    1.4551 H           1 M1S       0.0425
     26 H2         59.5253   78.5435   -1.0866 H           1 M1S       0.0663
     27 H3         58.1598   77.5841   -0.6839 H           1 M1S       0.0663
     28 H4         58.8189   75.2306   -2.8600 H           1 M1S       0.0495
     29 H5         60.3914   75.9757   -3.1660 H           1 M1S       0.0495
     30 H6         59.5308   76.9170   -5.3178 H           1 M1S       0.0290
     31 H7         57.9630   76.1784   -5.0023 H           1 M1S       0.0290
     32 H8         59.1343   74.8135   -6.5988 H           1 M1S       0.0268
     33 H9         58.9585   73.9267   -5.0949 H           1 M1S       0.0268
     34 H10        61.1112   73.5001   -6.1408 H           1 M1S       0.0285
     35 H11        61.3386   74.2158   -4.5618 H           1 M1S       0.0285
     36 H12        61.3311   76.0780   -6.9819 H           1 M1S       0.0388
     37 H13        62.6946   74.9935   -6.8155 H           1 M1S       0.0388
     38 H14        63.2269   75.9448   -4.6730 H           1 M1S       0.0450
     39 H15        61.7859   78.1487   -5.8579 H           1 M1S       0.0451
     40 H16        63.6465   79.3735   -4.9505 H           1 M1S       0.0414
     41 H17        64.0226   78.0310   -3.8770 H           1 M1S       0.0414
     42 H18        61.4845   79.7396   -3.6793 H           1 M1S       0.0631
     43 H19        62.9329   79.9182   -2.6811 H           1 M1S       0.0631
     44 H20        63.7480   76.8106    1.0712 H           1 M1S       0.2508
     45 H21        60.2834   72.7298    1.0189 H           1 M1S       0.2502
@<TRIPOS>BOND
     1     1     2   1
     2     1    19   2
     3     1    24   1
     4     2     3  ar
     5     2     7  ar
     6     3     4  ar
     7     3    20   1
     8     4     5  ar
     9     5     6  ar
    10     5    21   1
    11     6     7  ar
    12     6    22   1
    13     7     8   1
    14     8     9   1
    15     9    10   1
    16     9    23   2
    17    10    11   1
    18    11    12   1
    19    12    13   1
    20    13    14   1
    21    14    15   1
    22    15    16   2
    23    16    17   1
    24    17    18   1
    25    18    24   1
    26     4    25   1
    27     8    26   1
    28     8    27   1
    29    10    28   1
    30    10    29   1
    31    11    30   1
    32    11    31   1
    33    12    32   1
    34    12    33   1
    35    13    34   1
    36    13    35   1
    37    14    36   1
    38    14    37   1
    39    15    38   1
    40    16    39   1
    41    17    40   1
    42    17    41   1
    43    18    42   1
    44    18    43   1
    45    20    44   1
    46    21    45   1
@<TRIPOS>SUBSTRUCTURE
     1  M1S      1

