@<TRIPOS>MOLECULE
2iwx_ligand_030
    45    46
SMALL
GAST_HUCK
****
This file was generated by PARSER (from files_GN.cpp)

@<TRIPOS>ATOM
      1 C1         60.1519   73.8306  -11.4385 C.2         1 M1S       0.2450
      2 C2         60.4816   72.9056  -10.4118 C.ar        1 M1S       0.0836
      3 C3         61.8505   72.7514  -10.0752 C.ar        1 M1S       0.0971
      4 C4         62.2479   71.8172   -9.1079 C.ar        1 M1S      -0.0045
      5 C5         61.2986   71.0123   -8.4632 C.ar        1 M1S       0.0932
      6 C6         59.9276   71.1464   -8.7795 C.ar        1 M1S       0.0655
      7 C7         59.4972   72.1094   -9.7422 C.ar        1 M1S      -0.0054
      8 C8         58.0301   72.3110   -9.9945 C.3         1 M1S       0.0540
      9 C9         57.4108   71.4738  -11.0174 C.2         1 M1S       0.1171
     10 C10        58.0891   70.3733  -11.7023 C.3         1 M1S       0.0232
     11 C11        57.2741   69.6691  -12.8230 C.3         1 M1S      -0.0368
     12 C12        57.9872   68.4601  -13.4852 C.3         1 M1S      -0.0494
     13 C13        59.3111   68.7459  -14.2487 C.3         1 M1S      -0.0463
     14 C14        59.2091   69.7688  -15.4219 C.3         1 M1S      -0.0365
     15 C15        59.6650   71.1063  -15.0732 C.2         1 M1S      -0.0986
     16 C16        58.9007   72.2100  -15.1233 C.2         1 M1S      -0.0962
     17 C17        59.4145   73.5527  -14.8932 C.3         1 M1S      -0.0086
     18 C18        58.8813   74.1929  -13.5903 C.3         1 M1S       0.0814
     19 O2         60.7022   75.0697  -11.4438 O.2         1 M1S      -0.3725
     20 O3         62.8358   73.4518  -10.6958 O.3         1 M1S      -0.3313
     21 O4         61.7555   70.1217   -7.5410 O.3         1 M1S      -0.3330
     22 CL1        58.8448   70.0930   -7.9920 Cl          1 M1S      -0.0932
     23 O5         56.2382   71.7201  -11.2756 O.2         1 M1S      -0.3883
     24 O1         59.3272   73.4449  -12.4495 O.3         1 M1S      -0.2800
     25 H1         63.2399   71.7075   -8.8804 H           1 M1S       0.0425
     26 H2         57.8515   73.3566  -10.2568 H           1 M1S       0.0663
     27 H3         57.4754   72.1720   -9.0639 H           1 M1S       0.0663
     28 H4         58.3635   69.6262  -10.9568 H           1 M1S       0.0495
     29 H5         59.0074   70.7588  -12.1446 H           1 M1S       0.0495
     30 H6         57.0099   70.3980  -13.5940 H           1 M1S       0.0290
     31 H7         56.3374   69.2994  -12.3914 H           1 M1S       0.0290
     32 H8         57.2866   68.0029  -14.1889 H           1 M1S       0.0268
     33 H9         58.1930   67.7156  -12.7121 H           1 M1S       0.0268
     34 H10        59.6419   67.7902  -14.6685 H           1 M1S       0.0285
     35 H11        60.0859   69.0457  -13.5370 H           1 M1S       0.0285
     36 H12        58.1902   69.7761  -15.8177 H           1 M1S       0.0388
     37 H13        59.8525   69.4261  -16.2377 H           1 M1S       0.0388
     38 H14        60.6212   71.2034  -14.8184 H           1 M1S       0.0450
     39 H15        57.9377   72.1213  -15.3542 H           1 M1S       0.0451
     40 H16        59.1192   74.1782  -15.7403 H           1 M1S       0.0414
     41 H17        60.5074   73.5633  -14.8548 H           1 M1S       0.0414
     42 H18        57.7900   74.2037  -13.5922 H           1 M1S       0.0631
     43 H19        59.2231   75.2283  -13.5435 H           1 M1S       0.0631
     44 H20        63.0149   74.2172  -10.1001 H           1 M1S       0.2508
     45 H21        61.1342   70.1699   -6.7856 H           1 M1S       0.2502
@<TRIPOS>BOND
     1     1     2   1
     2     1    19   2
     3     1    24   1
     4     2     3  ar
     5     2     7  ar
     6     3     4  ar
     7     3    20   1
     8     4     5  ar
     9     5     6  ar
    10     5    21   1
    11     6     7  ar
    12     6    22   1
    13     7     8   1
    14     8     9   1
    15     9    10   1
    16     9    23   2
    17    10    11   1
    18    11    12   1
    19    12    13   1
    20    13    14   1
    21    14    15   1
    22    15    16   2
    23    16    17   1
    24    17    18   1
    25    18    24   1
    26     4    25   1
    27     8    26   1
    28     8    27   1
    29    10    28   1
    30    10    29   1
    31    11    30   1
    32    11    31   1
    33    12    32   1
    34    12    33   1
    35    13    34   1
    36    13    35   1
    37    14    36   1
    38    14    37   1
    39    15    38   1
    40    16    39   1
    41    17    40   1
    42    17    41   1
    43    18    42   1
    44    18    43   1
    45    20    44   1
    46    21    45   1
@<TRIPOS>SUBSTRUCTURE
     1  M1S      1

