@<TRIPOS>MOLECULE
2iwx_ligand_013
    45    46
SMALL
GAST_HUCK
****
This file was generated by PARSER (from files_GN.cpp)

@<TRIPOS>ATOM
      1 C1         60.3888   76.9237   -1.9771 C.2         1 M1S       0.2450
      2 C2         61.4320   76.1400   -1.4177 C.ar        1 M1S       0.0836
      3 C3         62.1928   76.7045   -0.3628 C.ar        1 M1S       0.0971
      4 C4         63.2744   76.0032    0.1919 C.ar        1 M1S      -0.0045
      5 C5         63.6314   74.7427   -0.3039 C.ar        1 M1S       0.0932
      6 C6         62.8846   74.1533   -1.3462 C.ar        1 M1S       0.0655
      7 C7         61.7658   74.8369   -1.9098 C.ar        1 M1S      -0.0054
      8 C8         60.9441   74.1788   -2.9833 C.3         1 M1S       0.0540
      9 C9         61.3696   74.3999   -4.3636 C.2         1 M1S       0.1171
     10 C10        62.6201   75.0535   -4.7526 C.3         1 M1S       0.0232
     11 C11        62.8257   75.2792   -6.2790 C.3         1 M1S      -0.0368
     12 C12        64.2005   75.8902   -6.6667 C.3         1 M1S      -0.0494
     13 C13        64.5161   77.3213   -6.1457 C.3         1 M1S      -0.0463
     14 C14        63.5193   78.4369   -6.5856 C.3         1 M1S      -0.0365
     15 C15        62.5270   78.7673   -5.5729 C.2         1 M1S      -0.0986
     16 C16        61.2000   78.6527   -5.7450 C.2         1 M1S      -0.0962
     17 C17        60.2166   79.0913   -4.7644 C.3         1 M1S      -0.0086
     18 C18        59.4547   77.9193   -4.1048 C.3         1 M1S       0.0814
     19 O2         59.4907   77.5391   -1.1706 O.2         1 M1S      -0.3725
     20 O3         61.9401   77.9504    0.1258 O.3         1 M1S      -0.3313
     21 O4         64.7049   74.1250    0.2544 O.3         1 M1S      -0.3330
     22 CL1        63.3890   72.6186   -1.8848 Cl          1 M1S      -0.0932
     23 O5         60.6281   73.9496   -5.2297 O.2         1 M1S      -0.3883
     24 O1         60.3585   77.1265   -3.3212 O.3         1 M1S      -0.2800
     25 H1         63.8215   76.4246    0.9459 H           1 M1S       0.0425
     26 H2         59.9044   74.5026   -2.8829 H           1 M1S       0.0663
     27 H3         60.9043   73.1011   -2.8138 H           1 M1S       0.0663
     28 H4         63.4490   74.4486   -4.3777 H           1 M1S       0.0495
     29 H5         62.6672   76.0247   -4.2587 H           1 M1S       0.0495
     30 H6         62.0269   75.9177   -6.6634 H           1 M1S       0.0290
     31 H7         62.7443   74.3137   -6.7880 H           1 M1S       0.0290
     32 H8         64.2670   75.9056   -7.7589 H           1 M1S       0.0268
     33 H9         64.9870   75.2186   -6.3100 H           1 M1S       0.0268
     34 H10        65.5038   77.5854   -6.5391 H           1 M1S       0.0285
     35 H11        64.6144   77.2953   -5.0561 H           1 M1S       0.0285
     36 H12        63.0514   78.1614   -7.5354 H           1 M1S       0.0388
     37 H13        64.0837   79.3538   -6.7764 H           1 M1S       0.0388
     38 H14        62.8677   79.1301   -4.7116 H           1 M1S       0.0450
     39 H15        60.8549   78.2705   -6.5973 H           1 M1S       0.0451
     40 H16        59.4976   79.7398   -5.2720 H           1 M1S       0.0414
     41 H17        60.6778   79.6846   -3.9701 H           1 M1S       0.0414
     42 H18        59.0041   77.2832   -4.8698 H           1 M1S       0.0631
     43 H19        58.6477   78.3271   -3.4903 H           1 M1S       0.0631
     44 H20        62.6406   78.5207   -0.2576 H           1 M1S       0.2508
     45 H21        65.3083   73.9276   -0.4939 H           1 M1S       0.2502
@<TRIPOS>BOND
     1     1     2   1
     2     1    19   2
     3     1    24   1
     4     2     3  ar
     5     2     7  ar
     6     3     4  ar
     7     3    20   1
     8     4     5  ar
     9     5     6  ar
    10     5    21   1
    11     6     7  ar
    12     6    22   1
    13     7     8   1
    14     8     9   1
    15     9    10   1
    16     9    23   2
    17    10    11   1
    18    11    12   1
    19    12    13   1
    20    13    14   1
    21    14    15   1
    22    15    16   2
    23    16    17   1
    24    17    18   1
    25    18    24   1
    26     4    25   1
    27     8    26   1
    28     8    27   1
    29    10    28   1
    30    10    29   1
    31    11    30   1
    32    11    31   1
    33    12    32   1
    34    12    33   1
    35    13    34   1
    36    13    35   1
    37    14    36   1
    38    14    37   1
    39    15    38   1
    40    16    39   1
    41    17    40   1
    42    17    41   1
    43    18    42   1
    44    18    43   1
    45    20    44   1
    46    21    45   1
@<TRIPOS>SUBSTRUCTURE
     1  M1S      1

