@<TRIPOS>MOLECULE
2iwx_ligand_033
    45    46
SMALL
GAST_HUCK
****
This file was generated by PARSER (from files_GN.cpp)

@<TRIPOS>ATOM
      1 C1         63.0607   77.3072   -3.8785 C.2         1 M1S       0.2450
      2 C2         63.1679   76.0849   -3.1707 C.ar        1 M1S       0.0836
      3 C3         63.7122   74.9730   -3.8618 C.ar        1 M1S       0.0971
      4 C4         63.7992   73.7196   -3.2427 C.ar        1 M1S      -0.0045
      5 C5         63.3448   73.5453   -1.9309 C.ar        1 M1S       0.0932
      6 C6         62.8384   74.6449   -1.2047 C.ar        1 M1S       0.0655
      7 C7         62.7367   75.9310   -1.8135 C.ar        1 M1S      -0.0054
      8 C8         62.2052   77.0985   -1.0215 C.3         1 M1S       0.0540
      9 C9         60.7712   77.3538   -1.0986 C.2         1 M1S       0.1171
     10 C10        59.8071   76.4422   -1.7161 C.3         1 M1S       0.0232
     11 C11        58.3353   76.9410   -1.7647 C.3         1 M1S      -0.0368
     12 C12        57.3277   75.9395   -2.3866 C.3         1 M1S      -0.0494
     13 C13        57.5162   75.5816   -3.8903 C.3         1 M1S      -0.0463
     14 C14        57.4626   76.7807   -4.8864 C.3         1 M1S      -0.0365
     15 C15        58.7720   77.2497   -5.3157 C.2         1 M1S      -0.0986
     16 C16        59.2382   78.4947   -5.1113 C.2         1 M1S      -0.0962
     17 C17        60.5059   78.9853   -5.6323 C.3         1 M1S      -0.0086
     18 C18        61.5533   79.2263   -4.5220 C.3         1 M1S       0.0814
     19 O2         64.1156   77.7771   -4.5898 O.2         1 M1S      -0.3725
     20 O3         64.1260   75.0451   -5.1562 O.3         1 M1S      -0.3313
     21 O4         63.3976   72.3022   -1.3843 O.3         1 M1S      -0.3330
     22 CL1        62.3515   74.3568    0.4039 Cl          1 M1S      -0.0932
     23 O5         60.3855   78.4050   -0.5974 O.2         1 M1S      -0.3883
     24 O1         61.8826   77.9885   -3.8783 O.3         1 M1S      -0.2800
     25 H1         64.1784   72.9203   -3.7564 H           1 M1S       0.0425
     26 H2         62.7211   78.0004   -1.3425 H           1 M1S       0.0663
     27 H3         62.4751   77.0041    0.0311 H           1 M1S       0.0663
     28 H4         59.8317   75.4973   -1.1686 H           1 M1S       0.0495
     29 H5         60.1317   76.2479   -2.7391 H           1 M1S       0.0495
     30 H6         58.2964   77.8766   -2.3247 H           1 M1S       0.0290
     31 H7         58.0035   77.1554   -0.7459 H           1 M1S       0.0290
     32 H8         56.3233   76.3552   -2.2661 H           1 M1S       0.0268
     33 H9         57.3602   75.0121   -1.8084 H           1 M1S       0.0268
     34 H10        56.7041   74.8949   -4.1514 H           1 M1S       0.0285
     35 H11        58.4438   75.0138   -4.0158 H           1 M1S       0.0285
     36 H12        56.8634   77.5901   -4.4551 H           1 M1S       0.0388
     37 H13        56.9370   76.4591   -5.7907 H           1 M1S       0.0388
     38 H14        59.3374   76.6087   -5.8236 H           1 M1S       0.0450
     39 H15        58.6861   79.1318   -4.5819 H           1 M1S       0.0451
     40 H16        60.3160   79.9265   -6.1514 H           1 M1S       0.0414
     41 H17        60.9306   78.2930   -6.3622 H           1 M1S       0.0414
     42 H18        61.1633   79.9146   -3.7678 H           1 M1S       0.0631
     43 H19        62.4411   79.6868   -4.9664 H           1 M1S       0.0631
     44 H20        63.3040   74.9550   -5.6848 H           1 M1S       0.2508
     45 H21        62.7616   71.7584   -1.9147 H           1 M1S       0.2502
@<TRIPOS>BOND
     1     1     2   1
     2     1    19   2
     3     1    24   1
     4     2     3  ar
     5     2     7  ar
     6     3     4  ar
     7     3    20   1
     8     4     5  ar
     9     5     6  ar
    10     5    21   1
    11     6     7  ar
    12     6    22   1
    13     7     8   1
    14     8     9   1
    15     9    10   1
    16     9    23   2
    17    10    11   1
    18    11    12   1
    19    12    13   1
    20    13    14   1
    21    14    15   1
    22    15    16   2
    23    16    17   1
    24    17    18   1
    25    18    24   1
    26     4    25   1
    27     8    26   1
    28     8    27   1
    29    10    28   1
    30    10    29   1
    31    11    30   1
    32    11    31   1
    33    12    32   1
    34    12    33   1
    35    13    34   1
    36    13    35   1
    37    14    36   1
    38    14    37   1
    39    15    38   1
    40    16    39   1
    41    17    40   1
    42    17    41   1
    43    18    42   1
    44    18    43   1
    45    20    44   1
    46    21    45   1
@<TRIPOS>SUBSTRUCTURE
     1  M1S      1

