@<TRIPOS>MOLECULE
2iwx_ligand_038
    45    46
SMALL
GAST_HUCK
****
This file was generated by PARSER (from files_GN.cpp)

@<TRIPOS>ATOM
      1 C1         62.9443   77.8352   -5.2915 C.2         1 M1S       0.2450
      2 C2         63.3488   78.9718   -4.5501 C.ar        1 M1S       0.0836
      3 C3         62.3918   79.5801   -3.6979 C.ar        1 M1S       0.0971
      4 C4         62.7222   80.7288   -2.9550 C.ar        1 M1S      -0.0045
      5 C5         63.9716   81.3370   -3.1206 C.ar        1 M1S       0.0932
      6 C6         64.9293   80.7756   -3.9844 C.ar        1 M1S       0.0655
      7 C7         64.6481   79.5599   -4.6790 C.ar        1 M1S      -0.0054
      8 C8         65.7179   78.8914   -5.4963 C.3         1 M1S       0.0540
      9 C9         65.8422   79.3142   -6.8901 C.2         1 M1S       0.1171
     10 C10        65.1122   80.4418   -7.4737 C.3         1 M1S       0.0232
     11 C11        65.3043   80.6723   -9.0001 C.3         1 M1S      -0.0368
     12 C12        64.5822   81.9293   -9.5571 C.3         1 M1S      -0.0494
     13 C13        63.0310   81.9628   -9.4322 C.3         1 M1S      -0.0463
     14 C14        62.2795   80.8125  -10.1625 C.3         1 M1S      -0.0365
     15 C15        61.8502   79.7313   -9.2847 C.2         1 M1S      -0.0986
     16 C16        62.2643   78.4591   -9.3703 C.2         1 M1S      -0.0962
     17 C17        61.7378   77.3631   -8.5723 C.3         1 M1S      -0.0086
     18 C18        62.7789   76.7985   -7.5780 C.3         1 M1S       0.0814
     19 O2         62.2306   76.8497   -4.6944 O.2         1 M1S      -0.3725
     20 O3         61.0980   79.1443   -3.6054 O.3         1 M1S      -0.3313
     21 O4         64.1965   82.4660   -2.4129 O.3         1 M1S      -0.3330
     22 CL1        66.3917   81.6090   -4.1853 Cl          1 M1S      -0.0932
     23 O5         66.6238   78.6752   -7.5804 O.2         1 M1S      -0.3883
     24 O1         63.1509   77.8074   -6.6356 O.3         1 M1S      -0.2800
     25 H1         62.0131   81.1498   -2.3393 H           1 M1S       0.0425
     26 H2         65.5507   77.8115   -5.4846 H           1 M1S       0.0663
     27 H3         66.6873   79.0155   -5.0106 H           1 M1S       0.0663
     28 H4         65.4157   81.3521   -6.9521 H           1 M1S       0.0495
     29 H5         64.0496   80.2824   -7.2867 H           1 M1S       0.0495
     30 H6         64.9667   79.7874   -9.5430 H           1 M1S       0.0290
     31 H7         66.3754   80.7866   -9.1997 H           1 M1S       0.0290
     32 H8         64.8570   82.0329  -10.6145 H           1 M1S       0.0268
     33 H9         64.9813   82.8065   -9.0389 H           1 M1S       0.0268
     34 H10        62.7039   82.9059   -9.8759 H           1 M1S       0.0285
     35 H11        62.7666   82.0012   -8.3711 H           1 M1S       0.0285
     36 H12        62.9042   80.4380  -10.9761 H           1 M1S       0.0388
     37 H13        61.3696   81.2122  -10.6197 H           1 M1S       0.0388
     38 H14        61.1663   79.9469   -8.5892 H           1 M1S       0.0450
     39 H15        62.9698   78.2426  -10.0281 H           1 M1S       0.0451
     40 H16        61.4306   76.5656   -9.2508 H           1 M1S       0.0414
     41 H17        60.8489   77.6687   -8.0080 H           1 M1S       0.0414
     42 H18        63.6751   76.4675   -8.1106 H           1 M1S       0.0631
     43 H19        62.3505   75.9278   -7.0777 H           1 M1S       0.0631
     44 H20        60.5883   79.7217   -4.2108 H           1 M1S       0.2508
     45 H21        64.5175   83.1435   -3.0686 H           1 M1S       0.2502
@<TRIPOS>BOND
     1     1     2   1
     2     1    19   2
     3     1    24   1
     4     2     3  ar
     5     2     7  ar
     6     3     4  ar
     7     3    20   1
     8     4     5  ar
     9     5     6  ar
    10     5    21   1
    11     6     7  ar
    12     6    22   1
    13     7     8   1
    14     8     9   1
    15     9    10   1
    16     9    23   2
    17    10    11   1
    18    11    12   1
    19    12    13   1
    20    13    14   1
    21    14    15   1
    22    15    16   2
    23    16    17   1
    24    17    18   1
    25    18    24   1
    26     4    25   1
    27     8    26   1
    28     8    27   1
    29    10    28   1
    30    10    29   1
    31    11    30   1
    32    11    31   1
    33    12    32   1
    34    12    33   1
    35    13    34   1
    36    13    35   1
    37    14    36   1
    38    14    37   1
    39    15    38   1
    40    16    39   1
    41    17    40   1
    42    17    41   1
    43    18    42   1
    44    18    43   1
    45    20    44   1
    46    21    45   1
@<TRIPOS>SUBSTRUCTURE
     1  M1S      1

