@<TRIPOS>MOLECULE
2iwx_ligand_037
    45    46
SMALL
GAST_HUCK
****
This file was generated by PARSER (from files_GN.cpp)

@<TRIPOS>ATOM
      1 C1         62.8530   73.9502   -1.9047 C.2         1 M1S       0.2450
      2 C2         63.3031   73.8228   -3.2431 C.ar        1 M1S       0.0836
      3 C3         64.6986   73.7186   -3.4626 C.ar        1 M1S       0.0971
      4 C4         65.2144   73.6186   -4.7625 C.ar        1 M1S      -0.0045
      5 C5         64.3518   73.6259   -5.8668 C.ar        1 M1S       0.0932
      6 C6         62.9550   73.7307   -5.6771 C.ar        1 M1S       0.0655
      7 C7         62.4084   73.8170   -4.3630 C.ar        1 M1S      -0.0054
      8 C8         60.9179   73.8633   -4.1634 C.3         1 M1S       0.0540
      9 C9         60.3063   75.1882   -4.1281 C.2         1 M1S       0.1171
     10 C10        61.0059   76.4301   -4.4601 C.3         1 M1S       0.0232
     11 C11        60.1928   77.7405   -4.2605 C.3         1 M1S      -0.0368
     12 C12        60.9476   79.0379   -4.6536 C.3         1 M1S      -0.0494
     13 C13        62.2124   79.4009   -3.8253 C.3         1 M1S      -0.0463
     14 C14        61.9804   79.6005   -2.2953 C.3         1 M1S      -0.0365
     15 C15        62.3651   78.4496   -1.4918 C.2         1 M1S      -0.0986
     16 C16        61.5277   77.7533   -0.7026 C.2         1 M1S      -0.0962
     17 C17        61.9546   76.6650    0.1631 C.3         1 M1S      -0.0086
     18 C18        61.4333   75.2869   -0.3025 C.3         1 M1S       0.0814
     19 O2         63.3144   73.1038   -0.9554 O.2         1 M1S      -0.3725
     20 O3         65.5917   73.7430   -2.4411 O.3         1 M1S      -0.3313
     21 O4         64.9099   73.5178   -7.0967 O.3         1 M1S      -0.3330
     22 CL1        61.9927   73.7615   -7.0818 Cl          1 M1S      -0.0932
     23 O5         59.1184   75.2214   -3.8265 O.2         1 M1S      -0.3883
     24 O1         62.0023   74.9583   -1.5760 O.3         1 M1S      -0.2800
     25 H1         66.2262   73.5500   -4.9100 H           1 M1S       0.0425
     26 H2         60.6700   73.3443   -3.2358 H           1 M1S       0.0663
     27 H3         60.4175   73.2828   -4.9388 H           1 M1S       0.0663
     28 H4         61.3188   76.3729   -5.5051 H           1 M1S       0.0495
     29 H5         61.9015   76.4901   -3.8418 H           1 M1S       0.0495
     30 H6         59.8706   77.8129   -3.2212 H           1 M1S       0.0290
     31 H7         59.2917   77.6843   -4.8781 H           1 M1S       0.0290
     32 H8         60.2454   79.8703   -4.5778 H           1 M1S       0.0268
     33 H9         61.2389   78.9627   -5.7064 H           1 M1S       0.0268
     34 H10        62.5928   80.3449   -4.2297 H           1 M1S       0.0285
     35 H11        62.9955   78.6593   -4.0075 H           1 M1S       0.0285
     36 H12        60.9425   79.8919   -2.1129 H           1 M1S       0.0388
     37 H13        62.5979   80.4373   -1.9549 H           1 M1S       0.0388
     38 H14        63.3238   78.1885   -1.5136 H           1 M1S       0.0450
     39 H15        60.5634   77.9940   -0.6937 H           1 M1S       0.0451
     40 H16        61.5809   76.8650    1.1704 H           1 M1S       0.0414
     41 H17        63.0462   76.6098    0.2316 H           1 M1S       0.0414
     42 H18        60.3460   75.3038   -0.4023 H           1 M1S       0.0631
     43 H19        61.6890   74.5379    0.4495 H           1 M1S       0.0631
     44 H20        65.8656   72.8073   -2.3380 H           1 M1S       0.2508
     45 H21        64.8880   72.5572   -7.2886 H           1 M1S       0.2502
@<TRIPOS>BOND
     1     1     2   1
     2     1    19   2
     3     1    24   1
     4     2     3  ar
     5     2     7  ar
     6     3     4  ar
     7     3    20   1
     8     4     5  ar
     9     5     6  ar
    10     5    21   1
    11     6     7  ar
    12     6    22   1
    13     7     8   1
    14     8     9   1
    15     9    10   1
    16     9    23   2
    17    10    11   1
    18    11    12   1
    19    12    13   1
    20    13    14   1
    21    14    15   1
    22    15    16   2
    23    16    17   1
    24    17    18   1
    25    18    24   1
    26     4    25   1
    27     8    26   1
    28     8    27   1
    29    10    28   1
    30    10    29   1
    31    11    30   1
    32    11    31   1
    33    12    32   1
    34    12    33   1
    35    13    34   1
    36    13    35   1
    37    14    36   1
    38    14    37   1
    39    15    38   1
    40    16    39   1
    41    17    40   1
    42    17    41   1
    43    18    42   1
    44    18    43   1
    45    20    44   1
    46    21    45   1
@<TRIPOS>SUBSTRUCTURE
     1  M1S      1

