@<TRIPOS>MOLECULE
2iwx_ligand_003
    45    46
SMALL
GAST_HUCK
****
This file was generated by PARSER (from files_GN.cpp)

@<TRIPOS>ATOM
      1 C1         64.5769   82.0629   -4.1085 C.2         1 M1S       0.2450
      2 C2         63.6291   81.0689   -3.7608 C.ar        1 M1S       0.0836
      3 C3         63.3865   80.8276   -2.3853 C.ar        1 M1S       0.0971
      4 C4         62.4552   79.8551   -1.9944 C.ar        1 M1S      -0.0045
      5 C5         61.7703   79.0956   -2.9525 C.ar        1 M1S       0.0932
      6 C6         62.0114   79.3006   -4.3247 C.ar        1 M1S       0.0655
      7 C7         62.9321   80.3061   -4.7543 C.ar        1 M1S      -0.0054
      8 C8         63.1415   80.5629   -6.2207 C.3         1 M1S       0.0540
      9 C9         64.1982   79.7950   -6.8774 C.2         1 M1S       0.1171
     10 C10        64.9386   78.7040   -6.2401 C.3         1 M1S       0.0232
     11 C11        66.0890   78.0844   -7.0853 C.3         1 M1S      -0.0368
     12 C12        66.8151   76.8843   -6.4170 C.3         1 M1S      -0.0494
     13 C13        67.5901   77.1634   -5.0989 C.3         1 M1S      -0.0463
     14 C14        68.7320   78.2231   -5.1973 C.3         1 M1S      -0.0365
     15 C15        68.3470   79.5337   -4.6992 C.2         1 M1S      -0.0986
     16 C16        68.3365   80.6588   -5.4361 C.2         1 M1S      -0.0962
     17 C17        68.0485   81.9779   -4.8912 C.3         1 M1S      -0.0086
     18 C18        66.7019   82.5543   -5.3890 C.3         1 M1S       0.0814
     19 O2         64.4445   83.3190   -3.6110 O.2         1 M1S      -0.3725
     20 O3         64.0278   81.4883   -1.3796 O.3         1 M1S      -0.3313
     21 O4         60.8691   78.1784   -2.5068 O.3         1 M1S      -0.3330
     22 CL1        61.1676   78.3086   -5.4184 Cl          1 M1S      -0.0932
     23 O5         64.4372   80.0955   -8.0424 O.2         1 M1S      -0.3883
     24 O1         65.6125   81.7400   -4.9217 O.3         1 M1S      -0.2800
     25 H1         62.2885   79.6821   -1.0006 H           1 M1S       0.0425
     26 H2         63.3480   81.6241   -6.3730 H           1 M1S       0.0663
     27 H3         62.2128   80.3947   -6.7665 H           1 M1S       0.0663
     28 H4         64.2283   77.9100   -5.9890 H           1 M1S       0.0495
     29 H5         65.3705   79.0796   -5.3102 H           1 M1S       0.0495
     30 H6         66.8200   78.8591   -7.3246 H           1 M1S       0.0290
     31 H7         65.6695   77.7259   -8.0303 H           1 M1S       0.0290
     32 H8         67.5243   76.4759   -7.1443 H           1 M1S       0.0268
     33 H9         66.0778   76.1007   -6.2209 H           1 M1S       0.0268
     34 H10        68.0413   76.2149   -4.7945 H           1 M1S       0.0285
     35 H11        66.8810   77.4246   -4.3086 H           1 M1S       0.0285
     36 H12        69.1007   78.2719   -6.2234 H           1 M1S       0.0388
     37 H13        69.5704   77.8895   -4.5814 H           1 M1S       0.0388
     38 H14        68.1108   79.5983   -3.7390 H           1 M1S       0.0450
     39 H15        68.5490   80.5975   -6.4028 H           1 M1S       0.0451
     40 H16        68.8581   82.6512   -5.1918 H           1 M1S       0.0414
     41 H17        68.0299   81.9634   -3.7970 H           1 M1S       0.0414
     42 H18        66.6756   82.5646   -6.4795 H           1 M1S       0.0631
     43 H19        66.6043   83.5849   -5.0385 H           1 M1S       0.0631
     44 H20        64.8350   81.8809   -1.7674 H           1 M1S       0.2508
     45 H21        61.3502   77.3256   -2.5365 H           1 M1S       0.2502
@<TRIPOS>BOND
     1     1     2   1
     2     1    19   2
     3     1    24   1
     4     2     3  ar
     5     2     7  ar
     6     3     4  ar
     7     3    20   1
     8     4     5  ar
     9     5     6  ar
    10     5    21   1
    11     6     7  ar
    12     6    22   1
    13     7     8   1
    14     8     9   1
    15     9    10   1
    16     9    23   2
    17    10    11   1
    18    11    12   1
    19    12    13   1
    20    13    14   1
    21    14    15   1
    22    15    16   2
    23    16    17   1
    24    17    18   1
    25    18    24   1
    26     4    25   1
    27     8    26   1
    28     8    27   1
    29    10    28   1
    30    10    29   1
    31    11    30   1
    32    11    31   1
    33    12    32   1
    34    12    33   1
    35    13    34   1
    36    13    35   1
    37    14    36   1
    38    14    37   1
    39    15    38   1
    40    16    39   1
    41    17    40   1
    42    17    41   1
    43    18    42   1
    44    18    43   1
    45    20    44   1
    46    21    45   1
@<TRIPOS>SUBSTRUCTURE
     1  M1S      1

