@<TRIPOS>MOLECULE
2iwx_ligand_017
    45    46
SMALL
GAST_HUCK
****
This file was generated by PARSER (from files_GN.cpp)

@<TRIPOS>ATOM
      1 C1         59.1669   76.3051   -3.6732 C.2         1 M1S       0.2450
      2 C2         59.3432   76.9701   -4.9163 C.ar        1 M1S       0.0836
      3 C3         60.2005   78.0981   -4.9503 C.ar        1 M1S       0.0971
      4 C4         60.4182   78.7829   -6.1566 C.ar        1 M1S      -0.0045
      5 C5         59.7719   78.3838   -7.3370 C.ar        1 M1S       0.0932
      6 C6         58.8862   77.2833   -7.3188 C.ar        1 M1S       0.0655
      7 C7         58.6809   76.5431   -6.1175 C.ar        1 M1S      -0.0054
      8 C8         57.8189   75.3087   -6.1461 C.3         1 M1S       0.0540
      9 C9         56.3889   75.5012   -5.9045 C.2         1 M1S       0.1171
     10 C10        55.7621   76.7998   -5.6478 C.3         1 M1S       0.0232
     11 C11        54.2650   76.7531   -5.2388 C.3         1 M1S      -0.0368
     12 C12        53.5849   78.1427   -5.1001 C.3         1 M1S      -0.0494
     13 C13        54.1588   79.1348   -4.0478 C.3         1 M1S      -0.0463
     14 C14        54.1067   78.6425   -2.5689 C.3         1 M1S      -0.0365
     15 C15        55.3690   78.0993   -2.0868 C.2         1 M1S      -0.0986
     16 C16        55.5363   76.8346   -1.6521 C.2         1 M1S      -0.0962
     17 C17        56.7795   76.3396   -1.0773 C.3         1 M1S      -0.0086
     18 C18        57.5314   75.3547   -2.0016 C.3         1 M1S       0.0814
     19 O2         60.2491   76.0090   -2.9180 O.2         1 M1S      -0.3725
     20 O3         60.8354   78.5868   -3.8569 O.3         1 M1S      -0.3313
     21 O4         60.0218   79.0936   -8.4654 O.3         1 M1S      -0.3330
     22 CL1        58.0663   76.9368   -8.7698 Cl          1 M1S      -0.0932
     23 O5         55.7025   74.4862   -5.9455 O.2         1 M1S      -0.3883
     24 O1         57.9177   76.0190   -3.2158 O.3         1 M1S      -0.2800
     25 H1         61.0423   79.5998   -6.1769 H           1 M1S       0.0425
     26 H2         58.1921   74.5901   -5.4168 H           1 M1S       0.0663
     27 H3         57.9367   74.8053   -7.1077 H           1 M1S       0.0663
     28 H4         55.8623   77.4013   -6.5521 H           1 M1S       0.0495
     29 H5         56.3060   77.2901   -4.8480 H           1 M1S       0.0495
     30 H6         54.1531   76.2106   -4.3001 H           1 M1S       0.0290
     31 H7         53.7078   76.1951   -6.0052 H           1 M1S       0.0290
     32 H8         52.5294   77.9717   -4.8691 H           1 M1S       0.0268
     33 H9         53.6135   78.6350   -6.0818 H           1 M1S       0.0268
     34 H10        53.5657   80.0436   -4.1124 H           1 M1S       0.0285
     35 H11        55.1795   79.4146   -4.3271 H           1 M1S       0.0285
     36 H12        53.2862   77.9264   -2.4441 H           1 M1S       0.0388
     37 H13        53.8707   79.4958   -1.9205 H           1 M1S       0.0388
     38 H14        56.1458   78.7229   -2.0578 H           1 M1S       0.0450
     39 H15        54.7686   76.2063   -1.7073 H           1 M1S       0.0451
     40 H16        56.5342   75.8363   -0.1386 H           1 M1S       0.0414
     41 H17        57.4589   77.1632   -0.8324 H           1 M1S       0.0414
     42 H18        56.8966   74.5059   -2.2598 H           1 M1S       0.0631
     43 H19        58.4043   74.9767   -1.4664 H           1 M1S       0.0631
     44 H20        60.1945   78.4991   -3.1111 H           1 M1S       0.2508
     45 H21        60.2268   78.4163   -9.1554 H           1 M1S       0.2502
@<TRIPOS>BOND
     1     1     2   1
     2     1    19   2
     3     1    24   1
     4     2     3  ar
     5     2     7  ar
     6     3     4  ar
     7     3    20   1
     8     4     5  ar
     9     5     6  ar
    10     5    21   1
    11     6     7  ar
    12     6    22   1
    13     7     8   1
    14     8     9   1
    15     9    10   1
    16     9    23   2
    17    10    11   1
    18    11    12   1
    19    12    13   1
    20    13    14   1
    21    14    15   1
    22    15    16   2
    23    16    17   1
    24    17    18   1
    25    18    24   1
    26     4    25   1
    27     8    26   1
    28     8    27   1
    29    10    28   1
    30    10    29   1
    31    11    30   1
    32    11    31   1
    33    12    32   1
    34    12    33   1
    35    13    34   1
    36    13    35   1
    37    14    36   1
    38    14    37   1
    39    15    38   1
    40    16    39   1
    41    17    40   1
    42    17    41   1
    43    18    42   1
    44    18    43   1
    45    20    44   1
    46    21    45   1
@<TRIPOS>SUBSTRUCTURE
     1  M1S      1

