@<TRIPOS>MOLECULE
2iwx_ligand_021
    45    46
SMALL
GAST_HUCK
****
This file was generated by PARSER (from files_GN.cpp)

@<TRIPOS>ATOM
      1 C1         60.2699   71.2367  -11.5595 C.2         1 M1S       0.2450
      2 C2         60.3857   70.3423  -10.4680 C.ar        1 M1S       0.0836
      3 C3         59.5235   69.2183  -10.4437 C.ar        1 M1S       0.0971
      4 C4         59.5402   68.3296   -9.3588 C.ar        1 M1S      -0.0045
      5 C5         60.4069   68.5476   -8.2777 C.ar        1 M1S       0.0932
      6 C6         61.2966   69.6430   -8.2918 C.ar        1 M1S       0.0655
      7 C7         61.3030   70.5536   -9.3895 C.ar        1 M1S      -0.0054
      8 C8         62.2774   71.7001   -9.4160 C.3         1 M1S       0.0540
      9 C9         61.8387   72.9504   -8.7969 C.2         1 M1S       0.1171
     10 C10        60.6089   73.1000   -8.0171 C.3         1 M1S       0.0232
     11 C11        60.2798   74.5442   -7.5415 C.3         1 M1S      -0.0368
     12 C12        59.0219   74.6620   -6.6408 C.3         1 M1S      -0.0494
     13 C13        57.6498   74.2770   -7.2652 C.3         1 M1S      -0.0463
     14 C14        57.2289   75.0912   -8.5266 C.3         1 M1S      -0.0365
     15 C15        57.5057   74.4010   -9.7762 C.2         1 M1S      -0.0986
     16 C16        58.3077   74.8726  -10.7486 C.2         1 M1S      -0.0962
     17 C17        58.4742   74.2215  -12.0381 C.3         1 M1S      -0.0086
     18 C18        59.8885   73.6339  -12.2367 C.3         1 M1S       0.0814
     19 O2         60.2349   70.7648  -12.8271 O.2         1 M1S      -0.3725
     20 O3         58.6166   68.9762  -11.4239 O.3         1 M1S      -0.3313
     21 O4         60.3639   67.6939   -7.2222 O.3         1 M1S      -0.3330
     22 CL1        62.3293   69.8233   -6.9473 Cl          1 M1S      -0.0932
     23 O5         62.5916   73.9070   -8.9336 O.2         1 M1S      -0.3883
     24 O1         60.0952   72.5616  -11.3107 O.3         1 M1S      -0.2800
     25 H1         58.9059   67.5285   -9.3449 H           1 M1S       0.0425
     26 H2         62.5483   71.9117  -10.4531 H           1 M1S       0.0663
     27 H3         63.2160   71.4037   -8.9478 H           1 M1S       0.0663
     28 H4         60.6858   72.4559   -7.1375 H           1 M1S       0.0495
     29 H5         59.7736   72.7465   -8.6198 H           1 M1S       0.0495
     30 H6         60.1631   75.1947   -8.4112 H           1 M1S       0.0290
     31 H7         61.1306   74.9205   -6.9658 H           1 M1S       0.0290
     32 H8         58.9555   75.6975   -6.2962 H           1 M1S       0.0268
     33 H9         59.1796   74.0469   -5.7531 H           1 M1S       0.0268
     34 H10        56.8961   74.4499   -6.4917 H           1 M1S       0.0285
     35 H11        57.6297   73.2048   -7.4743 H           1 M1S       0.0285
     36 H12        57.6899   76.0842   -8.4977 H           1 M1S       0.0388
     37 H13        56.1482   75.2532   -8.4924 H           1 M1S       0.0388
     38 H14        57.0281   73.5428   -9.9284 H           1 M1S       0.0450
     39 H15        58.7996   75.7216  -10.5943 H           1 M1S       0.0451
     40 H16        58.2817   74.9598  -12.8181 H           1 M1S       0.0414
     41 H17        57.7495   73.4124  -12.1727 H           1 M1S       0.0414
     42 H18        60.6509   74.3966  -12.0641 H           1 M1S       0.0631
     43 H19        59.9869   73.2881  -13.2673 H           1 M1S       0.0631
     44 H20        57.7708   69.3283  -11.0739 H           1 M1S       0.2508
     45 H21        59.4143   67.5012   -7.0731 H           1 M1S       0.2502
@<TRIPOS>BOND
     1     1     2   1
     2     1    19   2
     3     1    24   1
     4     2     3  ar
     5     2     7  ar
     6     3     4  ar
     7     3    20   1
     8     4     5  ar
     9     5     6  ar
    10     5    21   1
    11     6     7  ar
    12     6    22   1
    13     7     8   1
    14     8     9   1
    15     9    10   1
    16     9    23   2
    17    10    11   1
    18    11    12   1
    19    12    13   1
    20    13    14   1
    21    14    15   1
    22    15    16   2
    23    16    17   1
    24    17    18   1
    25    18    24   1
    26     4    25   1
    27     8    26   1
    28     8    27   1
    29    10    28   1
    30    10    29   1
    31    11    30   1
    32    11    31   1
    33    12    32   1
    34    12    33   1
    35    13    34   1
    36    13    35   1
    37    14    36   1
    38    14    37   1
    39    15    38   1
    40    16    39   1
    41    17    40   1
    42    17    41   1
    43    18    42   1
    44    18    43   1
    45    20    44   1
    46    21    45   1
@<TRIPOS>SUBSTRUCTURE
     1  M1S      1

