@<TRIPOS>MOLECULE
2iwx_ligand_008
    45    46
SMALL
GAST_HUCK
****
This file was generated by PARSER (from files_GN.cpp)

@<TRIPOS>ATOM
      1 C1         58.6683   71.2527  -11.8786 C.2         1 M1S       0.2450
      2 C2         59.1724   70.5041  -10.7841 C.ar        1 M1S       0.0836
      3 C3         58.4053   70.4710   -9.5909 C.ar        1 M1S       0.0971
      4 C4         58.8870   69.8109   -8.4519 C.ar        1 M1S      -0.0045
      5 C5         60.1354   69.1742   -8.4707 C.ar        1 M1S       0.0932
      6 C6         60.9090   69.1762   -9.6514 C.ar        1 M1S       0.0655
      7 C7         60.4337   69.8286  -10.8283 C.ar        1 M1S      -0.0054
      8 C8         61.2387   69.7695  -12.0989 C.3         1 M1S       0.0540
      9 C9         62.2537   70.8022  -12.2903 C.2         1 M1S       0.1171
     10 C10        62.6151   71.8002  -11.2854 C.3         1 M1S       0.0232
     11 C11        63.6334   72.8872  -11.7316 C.3         1 M1S      -0.0368
     12 C12        64.0688   73.8688  -10.6100 C.3         1 M1S      -0.0494
     13 C13        62.9640   74.7555   -9.9672 C.3         1 M1S      -0.0463
     14 C14        62.2027   75.7050  -10.9428 C.3         1 M1S      -0.0365
     15 C15        60.9110   75.1890  -11.3725 C.2         1 M1S      -0.0986
     16 C16        60.5855   74.9306  -12.6500 C.2         1 M1S      -0.0962
     17 C17        59.2529   74.5350  -13.0846 C.3         1 M1S      -0.0086
     18 C18        59.1806   73.0688  -13.5643 C.3         1 M1S       0.0814
     19 O2         57.3883   71.0879  -12.2909 O.2         1 M1S      -0.3725
     20 O3         57.2079   71.1076   -9.4662 O.3         1 M1S      -0.3313
     21 O4         60.5669   68.5568   -7.3359 O.3         1 M1S      -0.3330
     22 CL1        62.4200   68.3898   -9.5866 Cl          1 M1S      -0.0932
     23 O5         62.8428   70.7829  -13.3630 O.2         1 M1S      -0.3883
     24 O1         59.4664   72.1793  -12.4740 O.3         1 M1S      -0.2800
     25 H1         58.3251   69.8004   -7.5969 H           1 M1S       0.0425
     26 H2         60.5593   69.7940  -12.9553 H           1 M1S       0.0663
     27 H3         61.7276   68.7939  -12.1769 H           1 M1S       0.0663
     28 H4         63.0268   71.2760  -10.4194 H           1 M1S       0.0495
     29 H5         61.7024   72.3075  -10.9652 H           1 M1S       0.0495
     30 H6         63.2156   73.4554  -12.5649 H           1 M1S       0.0290
     31 H7         64.5361   72.3892  -12.0961 H           1 M1S       0.0290
     32 H8         64.8377   74.5291  -11.0192 H           1 M1S       0.0268
     33 H9         64.5422   73.2869   -9.8133 H           1 M1S       0.0268
     34 H10        63.4630   75.3779   -9.2168 H           1 M1S       0.0285
     35 H11        62.2636   74.1206   -9.4170 H           1 M1S       0.0285
     36 H12        62.8470   75.9537  -11.7925 H           1 M1S       0.0388
     37 H13        62.0058   76.6499  -10.4250 H           1 M1S       0.0388
     38 H14        60.2230   75.0550  -10.6695 H           1 M1S       0.0450
     39 H15        61.2836   75.0339  -13.3551 H           1 M1S       0.0451
     40 H16        58.9584   75.1877  -13.9102 H           1 M1S       0.0414
     41 H17        58.5161   74.6720  -12.2887 H           1 M1S       0.0414
     42 H18        59.9121   72.8923  -14.3573 H           1 M1S       0.0631
     43 H19        58.1859   72.8814  -13.9784 H           1 M1S       0.0631
     44 H20        56.5894   70.6018  -10.0412 H           1 M1S       0.2508
     45 H21        60.4663   69.2205   -6.6172 H           1 M1S       0.2502
@<TRIPOS>BOND
     1     1     2   1
     2     1    19   2
     3     1    24   1
     4     2     3  ar
     5     2     7  ar
     6     3     4  ar
     7     3    20   1
     8     4     5  ar
     9     5     6  ar
    10     5    21   1
    11     6     7  ar
    12     6    22   1
    13     7     8   1
    14     8     9   1
    15     9    10   1
    16     9    23   2
    17    10    11   1
    18    11    12   1
    19    12    13   1
    20    13    14   1
    21    14    15   1
    22    15    16   2
    23    16    17   1
    24    17    18   1
    25    18    24   1
    26     4    25   1
    27     8    26   1
    28     8    27   1
    29    10    28   1
    30    10    29   1
    31    11    30   1
    32    11    31   1
    33    12    32   1
    34    12    33   1
    35    13    34   1
    36    13    35   1
    37    14    36   1
    38    14    37   1
    39    15    38   1
    40    16    39   1
    41    17    40   1
    42    17    41   1
    43    18    42   1
    44    18    43   1
    45    20    44   1
    46    21    45   1
@<TRIPOS>SUBSTRUCTURE
     1  M1S      1

