@<TRIPOS>MOLECULE
2iwx_ligand_025
    45    46
SMALL
GAST_HUCK
****
This file was generated by PARSER (from files_GN.cpp)

@<TRIPOS>ATOM
      1 C1         57.4612   74.9038   -4.5197 C.2         1 M1S       0.2450
      2 C2         56.4452   75.8021   -4.9302 C.ar        1 M1S       0.0836
      3 C3         55.5866   75.3834   -5.9799 C.ar        1 M1S       0.0971
      4 C4         54.5608   76.2186   -6.4394 C.ar        1 M1S      -0.0045
      5 C5         54.3688   77.4790   -5.8610 C.ar        1 M1S       0.0932
      6 C6         55.1938   77.9159   -4.8010 C.ar        1 M1S       0.0655
      7 C7         56.2543   77.0868   -4.3250 C.ar        1 M1S      -0.0054
      8 C8         57.1460   77.5361   -3.2008 C.3         1 M1S       0.0540
      9 C9         58.4668   78.0384   -3.5777 C.2         1 M1S       0.1171
     10 C10        58.8023   78.5181   -4.9185 C.3         1 M1S       0.0232
     11 C11        60.2566   79.0346   -5.0990 C.3         1 M1S      -0.0368
     12 C12        60.5867   79.5687   -6.5180 C.3         1 M1S      -0.0494
     13 C13        60.6067   78.5423   -7.6869 C.3         1 M1S      -0.0463
     14 C14        61.6202   77.3664   -7.5375 C.3         1 M1S      -0.0365
     15 C15        61.0306   76.1569   -6.9820 C.2         1 M1S      -0.0986
     16 C16        61.4208   75.5743   -5.8354 C.2         1 M1S      -0.0962
     17 C17        60.8567   74.3342   -5.3243 C.3         1 M1S      -0.0086
     18 C18        59.9242   74.5567   -4.1127 C.3         1 M1S       0.0814
     19 O2         57.1173   73.6507   -4.1480 O.2         1 M1S      -0.3725
     20 O3         55.7295   74.1840   -6.6018 O.3         1 M1S      -0.3313
     21 O4         53.4092   78.2541   -6.4128 O.3         1 M1S      -0.3330
     22 CL1        54.8885   79.4723   -4.1853 Cl          1 M1S      -0.0932
     23 O5         59.3032   78.0753   -2.6853 O.2         1 M1S      -0.3883
     24 O1         58.7622   75.2938   -4.5138 O.3         1 M1S      -0.2800
     25 H1         53.9607   75.9171   -7.2157 H           1 M1S       0.0425
     26 H2         57.2676   76.6872   -2.5194 H           1 M1S       0.0663
     27 H3         56.6746   78.3104   -2.5926 H           1 M1S       0.0663
     28 H4         58.1116   79.3268   -5.1736 H           1 M1S       0.0495
     29 H5         58.6431   77.6997   -5.6239 H           1 M1S       0.0495
     30 H6         60.9656   78.2459   -4.8403 H           1 M1S       0.0290
     31 H7         60.4125   79.8562   -4.3926 H           1 M1S       0.0290
     32 H8         61.5673   80.0501   -6.4765 H           1 M1S       0.0268
     33 H9         59.8579   80.3473   -6.7573 H           1 M1S       0.0268
     34 H10        60.8852   79.0986   -8.5869 H           1 M1S       0.0285
     35 H11        59.5978   78.1639   -7.8630 H           1 M1S       0.0285
     36 H12        62.4855   77.6980   -6.9566 H           1 M1S       0.0388
     37 H13        61.9957   77.1012   -8.5288 H           1 M1S       0.0388
     38 H14        60.3017   75.7267   -7.5059 H           1 M1S       0.0450
     39 H15        62.1305   76.0107   -5.2899 H           1 M1S       0.0451
     40 H16        61.6811   73.6822   -5.0207 H           1 M1S       0.0414
     41 H17        60.2920   73.8007   -6.0956 H           1 M1S       0.0414
     42 H18        60.4431   75.1258   -3.3379 H           1 M1S       0.0631
     43 H19        59.6549   73.5864   -3.6893 H           1 M1S       0.0631
     44 H20        56.5591   74.2705   -7.1124 H           1 M1S       0.2508
     45 H21        52.8705   78.5952   -5.6685 H           1 M1S       0.2502
@<TRIPOS>BOND
     1     1     2   1
     2     1    19   2
     3     1    24   1
     4     2     3  ar
     5     2     7  ar
     6     3     4  ar
     7     3    20   1
     8     4     5  ar
     9     5     6  ar
    10     5    21   1
    11     6     7  ar
    12     6    22   1
    13     7     8   1
    14     8     9   1
    15     9    10   1
    16     9    23   2
    17    10    11   1
    18    11    12   1
    19    12    13   1
    20    13    14   1
    21    14    15   1
    22    15    16   2
    23    16    17   1
    24    17    18   1
    25    18    24   1
    26     4    25   1
    27     8    26   1
    28     8    27   1
    29    10    28   1
    30    10    29   1
    31    11    30   1
    32    11    31   1
    33    12    32   1
    34    12    33   1
    35    13    34   1
    36    13    35   1
    37    14    36   1
    38    14    37   1
    39    15    38   1
    40    16    39   1
    41    17    40   1
    42    17    41   1
    43    18    42   1
    44    18    43   1
    45    20    44   1
    46    21    45   1
@<TRIPOS>SUBSTRUCTURE
     1  M1S      1

