@<TRIPOS>MOLECULE
2iwx_ligand_016
    45    46
SMALL
GAST_HUCK
****
This file was generated by PARSER (from files_GN.cpp)

@<TRIPOS>ATOM
      1 C1         62.7612   81.1941   -4.2733 C.2         1 M1S       0.2450
      2 C2         62.1616   80.2116   -3.4444 C.ar        1 M1S       0.0836
      3 C3         62.6552   80.0506   -2.1195 C.ar        1 M1S       0.0971
      4 C4         62.1419   79.0437   -1.2879 C.ar        1 M1S      -0.0045
      5 C5         61.1334   78.1858   -1.7439 C.ar        1 M1S       0.0932
      6 C6         60.5995   78.3479   -3.0400 C.ar        1 M1S       0.0655
      7 C7         61.0980   79.3677   -3.9062 C.ar        1 M1S      -0.0054
      8 C8         60.4809   79.5557   -5.2650 C.3         1 M1S       0.0540
      9 C9         61.0228   78.7361   -6.3449 C.2         1 M1S       0.1171
     10 C10        62.0873   77.7432   -6.1798 C.3         1 M1S       0.0232
     11 C11        62.6320   77.1000   -7.4872 C.3         1 M1S      -0.0368
     12 C12        63.6674   75.9636   -7.2735 C.3         1 M1S      -0.0494
     13 C13        65.0002   76.3296   -6.5605 C.3         1 M1S      -0.0463
     14 C14        65.8685   77.4192   -7.2587 C.3         1 M1S      -0.0365
     15 C15        65.7156   78.7485   -6.6858 C.2         1 M1S      -0.0986
     16 C16        65.2699   79.8213   -7.3575 C.2         1 M1S      -0.0962
     17 C17        65.2325   81.1656   -6.7984 C.3         1 M1S      -0.0086
     18 C18        63.7950   81.6677   -6.5278 C.3         1 M1S       0.0814
     19 O2         62.9824   82.4451   -3.8004 O.2         1 M1S      -0.3725
     20 O3         63.6442   80.8140   -1.5815 O.3         1 M1S      -0.3313
     21 O4         60.6796   77.2091   -0.9134 O.3         1 M1S      -0.3330
     22 CL1        59.3635   77.2689   -3.5046 Cl          1 M1S      -0.0932
     23 O5         60.5327   78.9180   -7.4531 O.2         1 M1S      -0.3883
     24 O1         63.1674   80.8582   -5.5278 O.3         1 M1S      -0.2800
     25 H1         62.5201   78.9221   -0.3464 H           1 M1S       0.0425
     26 H2         60.5606   80.6033   -5.5605 H           1 M1S       0.0663
     27 H3         59.4055   79.3791   -5.2047 H           1 M1S       0.0663
     28 H4         61.7136   76.9467   -5.5288 H           1 M1S       0.0495
     29 H5         62.9267   78.2220   -5.6704 H           1 M1S       0.0495
     30 H6         63.0720   77.8789   -8.1140 H           1 M1S       0.0290
     31 H7         61.7906   76.6727   -8.0381 H           1 M1S       0.0290
     32 H8         63.9131   75.5493   -8.2539 H           1 M1S       0.0268
     33 H9         63.1860   75.1669   -6.7026 H           1 M1S       0.0268
     34 H10        65.5923   75.4097   -6.5214 H           1 M1S       0.0285
     35 H11        64.7958   76.6030   -5.5201 H           1 M1S       0.0285
     36 H12        65.6692   77.4161   -8.3343 H           1 M1S       0.0388
     37 H13        66.9236   77.1516   -7.1405 H           1 M1S       0.0388
     38 H14        65.9965   78.8639   -5.7369 H           1 M1S       0.0450
     39 H15        64.9574   79.7081   -8.2962 H           1 M1S       0.0451
     40 H16        65.7182   81.8409   -7.5069 H           1 M1S       0.0414
     41 H17        65.7964   81.2247   -5.8617 H           1 M1S       0.0414
     42 H18        63.2009   81.6169   -7.4425 H           1 M1S       0.0631
     43 H19        63.8415   82.7133   -6.2167 H           1 M1S       0.0631
     44 H20        64.1870   81.1499   -2.3342 H           1 M1S       0.2508
     45 H21        61.4345   76.5875   -0.8106 H           1 M1S       0.2502
@<TRIPOS>BOND
     1     1     2   1
     2     1    19   2
     3     1    24   1
     4     2     3  ar
     5     2     7  ar
     6     3     4  ar
     7     3    20   1
     8     4     5  ar
     9     5     6  ar
    10     5    21   1
    11     6     7  ar
    12     6    22   1
    13     7     8   1
    14     8     9   1
    15     9    10   1
    16     9    23   2
    17    10    11   1
    18    11    12   1
    19    12    13   1
    20    13    14   1
    21    14    15   1
    22    15    16   2
    23    16    17   1
    24    17    18   1
    25    18    24   1
    26     4    25   1
    27     8    26   1
    28     8    27   1
    29    10    28   1
    30    10    29   1
    31    11    30   1
    32    11    31   1
    33    12    32   1
    34    12    33   1
    35    13    34   1
    36    13    35   1
    37    14    36   1
    38    14    37   1
    39    15    38   1
    40    16    39   1
    41    17    40   1
    42    17    41   1
    43    18    42   1
    44    18    43   1
    45    20    44   1
    46    21    45   1
@<TRIPOS>SUBSTRUCTURE
     1  M1S      1

