@<TRIPOS>MOLECULE
2iwx_ligand_046
    45    46
SMALL
GAST_HUCK
****
This file was generated by PARSER (from files_GN.cpp)

@<TRIPOS>ATOM
      1 C1         54.9625   76.0036   -3.4492 C.2         1 M1S       0.2450
      2 C2         54.2563   76.3976   -4.6123 C.ar        1 M1S       0.0836
      3 C3         53.4932   75.4196   -5.2919 C.ar        1 M1S       0.0971
      4 C4         52.8255   75.7472   -6.4804 C.ar        1 M1S      -0.0045
      5 C5         52.8813   77.0442   -7.0011 C.ar        1 M1S       0.0932
      6 C6         53.6208   78.0418   -6.3295 C.ar        1 M1S       0.0655
      7 C7         54.3232   77.7274   -5.1282 C.ar        1 M1S      -0.0054
      8 C8         55.1402   78.7755   -4.4301 C.3         1 M1S       0.0540
      9 C9         56.5558   78.8049   -4.7793 C.2         1 M1S       0.1171
     10 C10        57.1282   78.1757   -5.9682 C.3         1 M1S       0.0232
     11 C11        58.6507   78.4097   -6.1804 C.3         1 M1S      -0.0368
     12 C12        59.2491   77.7293   -7.4403 C.3         1 M1S      -0.0494
     13 C13        59.2225   76.1743   -7.4886 C.3         1 M1S      -0.0463
     14 C14        59.9352   75.4423   -6.3100 C.3         1 M1S      -0.0365
     15 C15        59.0321   75.0047   -5.2545 C.2         1 M1S      -0.0986
     16 C16        59.1284   75.3714   -3.9653 C.2         1 M1S      -0.0962
     17 C17        58.2984   74.8156   -2.9050 C.3         1 M1S      -0.0086
     18 C18        57.2418   75.8152   -2.3791 C.3         1 M1S       0.0814
     19 O2         54.2879   75.4933   -2.3921 O.2         1 M1S      -0.3725
     20 O3         53.3996   74.1398   -4.8415 O.3         1 M1S      -0.3313
     21 O4         52.2404   77.2481   -8.1812 O.3         1 M1S      -0.3330
     22 CL1        53.7047   79.5884   -7.0358 Cl          1 M1S      -0.0932
     23 O5         57.2889   79.4001   -4.0000 O.2         1 M1S      -0.3883
     24 O1         56.3130   76.1475   -3.4185 O.3         1 M1S      -0.2800
     25 H1         52.2877   75.0323   -6.9684 H           1 M1S       0.0425
     26 H2         55.0451   78.6222   -3.3528 H           1 M1S       0.0663
     27 H3         54.7331   79.7739   -4.5933 H           1 M1S       0.0663
     28 H4         56.6018   78.5616   -6.8443 H           1 M1S       0.0495
     29 H5         56.9444   77.1018   -5.9086 H           1 M1S       0.0495
     30 H6         59.2019   78.0721   -5.2998 H           1 M1S       0.0290
     31 H7         58.8156   79.4882   -6.2745 H           1 M1S       0.0290
     32 H8         60.2915   78.0504   -7.5285 H           1 M1S       0.0268
     33 H9         58.7230   78.1091   -8.3209 H           1 M1S       0.0268
     34 H10        59.7301   75.8845   -8.4135 H           1 M1S       0.0285
     35 H11        58.1892   75.8307   -7.5890 H           1 M1S       0.0285
     36 H12        60.7414   76.0703   -5.9204 H           1 M1S       0.0388
     37 H13        60.4097   74.5377   -6.7014 H           1 M1S       0.0388
     38 H14        58.3223   74.3583   -5.5118 H           1 M1S       0.0450
     39 H15        59.8100   76.0471   -3.7057 H           1 M1S       0.0451
     40 H16        58.9527   74.5226   -2.0788 H           1 M1S       0.0414
     41 H17        57.7822   73.9103   -3.2356 H           1 M1S       0.0414
     42 H18        57.7281   76.7348   -2.0449 H           1 M1S       0.0631
     43 H19        56.7295   75.3722   -1.5210 H           1 M1S       0.0631
     44 H20        52.8689   73.6408   -5.4994 H           1 M1S       0.2508
     45 H21        51.8453   78.1421   -8.1294 H           1 M1S       0.2502
@<TRIPOS>BOND
     1     1     2   1
     2     1    19   2
     3     1    24   1
     4     2     3  ar
     5     2     7  ar
     6     3     4  ar
     7     3    20   1
     8     4     5  ar
     9     5     6  ar
    10     5    21   1
    11     6     7  ar
    12     6    22   1
    13     7     8   1
    14     8     9   1
    15     9    10   1
    16     9    23   2
    17    10    11   1
    18    11    12   1
    19    12    13   1
    20    13    14   1
    21    14    15   1
    22    15    16   2
    23    16    17   1
    24    17    18   1
    25    18    24   1
    26     4    25   1
    27     8    26   1
    28     8    27   1
    29    10    28   1
    30    10    29   1
    31    11    30   1
    32    11    31   1
    33    12    32   1
    34    12    33   1
    35    13    34   1
    36    13    35   1
    37    14    36   1
    38    14    37   1
    39    15    38   1
    40    16    39   1
    41    17    40   1
    42    17    41   1
    43    18    42   1
    44    18    43   1
    45    20    44   1
    46    21    45   1
@<TRIPOS>SUBSTRUCTURE
     1  M1S      1

