@<TRIPOS>MOLECULE
2iwx_ligand_029
    45    46
SMALL
GAST_HUCK
****
This file was generated by PARSER (from files_GN.cpp)

@<TRIPOS>ATOM
      1 C1         54.3686   78.8187   -5.4339 C.2         1 M1S       0.2450
      2 C2         54.6825   77.5631   -6.0064 C.ar        1 M1S       0.0836
      3 C3         53.5955   76.7311   -6.3757 C.ar        1 M1S       0.0971
      4 C4         53.8304   75.4604   -6.9218 C.ar        1 M1S      -0.0045
      5 C5         55.1395   74.9990   -7.1185 C.ar        1 M1S       0.0932
      6 C6         56.2363   75.8113   -6.7577 C.ar        1 M1S       0.0655
      7 C7         56.0258   77.1128   -6.2090 C.ar        1 M1S      -0.0054
      8 C8         57.1959   77.9822   -5.8506 C.3         1 M1S       0.0540
      9 C9         57.7255   77.8387   -4.4981 C.2         1 M1S       0.1171
     10 C10        57.2763   76.8287   -3.5441 C.3         1 M1S       0.0232
     11 C11        57.8488   76.9455   -2.1041 C.3         1 M1S      -0.0368
     12 C12        57.4449   75.7878   -1.1548 C.3         1 M1S      -0.0494
     13 C13        55.9287   75.5842   -0.8787 C.3         1 M1S      -0.0463
     14 C14        55.1954   76.7885   -0.2179 C.3         1 M1S      -0.0365
     15 C15        54.4966   77.6455   -1.1618 C.2         1 M1S      -0.0986
     16 C16        54.6788   78.9680   -1.2622 C.2         1 M1S      -0.0962
     17 C17        53.8191   79.8290   -2.0627 C.3         1 M1S      -0.0086
     18 C18        54.4880   80.2650   -3.3831 C.3         1 M1S       0.0814
     19 O2         53.5346   79.6599   -6.0893 O.2         1 M1S      -0.3725
     20 O3         52.3004   77.0987   -6.1718 O.3         1 M1S      -0.3313
     21 O4         55.2957   73.7578   -7.6471 O.3         1 M1S      -0.3330
     22 CL1        57.7906   75.1495   -6.9771 Cl          1 M1S      -0.0932
     23 O5         58.6276   78.6085   -4.1878 O.2         1 M1S      -0.3883
     24 O1         54.8058   79.1177   -4.1834 O.3         1 M1S      -0.2800
     25 H1         53.0398   74.8618   -7.1671 H           1 M1S       0.0425
     26 H2         56.9212   79.0286   -5.9952 H           1 M1S       0.0663
     27 H3         58.0124   77.8187   -6.5565 H           1 M1S       0.0663
     28 H4         57.5351   75.8460   -3.9439 H           1 M1S       0.0495
     29 H5         56.1900   76.8861   -3.4723 H           1 M1S       0.0495
     30 H6         57.5314   77.8923   -1.6652 H           1 M1S       0.0290
     31 H7         58.9402   76.9570   -2.1585 H           1 M1S       0.0290
     32 H8         57.9483   75.9509   -0.1976 H           1 M1S       0.0268
     33 H9         57.8403   74.8574   -1.5734 H           1 M1S       0.0268
     34 H10        55.8407   74.7385   -0.1918 H           1 M1S       0.0285
     35 H11        55.4232   75.2789   -1.7985 H           1 M1S       0.0285
     36 H12        55.9022   77.3610    0.3851 H           1 M1S       0.0388
     37 H13        54.4398   76.3993    0.4694 H           1 M1S       0.0388
     38 H14        53.7865   77.2157   -1.7129 H           1 M1S       0.0450
     39 H15        55.4088   79.4037   -0.7422 H           1 M1S       0.0451
     40 H16        53.5767   80.7176   -1.4748 H           1 M1S       0.0414
     41 H17        52.8744   79.3339   -2.3032 H           1 M1S       0.0414
     42 H18        55.4036   80.8156   -3.1682 H           1 M1S       0.0631
     43 H19        53.8057   80.9409   -3.9029 H           1 M1S       0.0631
     44 H20        52.0866   77.7247   -6.8919 H           1 M1S       0.2508
     45 H21        55.7152   73.9105   -8.5212 H           1 M1S       0.2502
@<TRIPOS>BOND
     1     1     2   1
     2     1    19   2
     3     1    24   1
     4     2     3  ar
     5     2     7  ar
     6     3     4  ar
     7     3    20   1
     8     4     5  ar
     9     5     6  ar
    10     5    21   1
    11     6     7  ar
    12     6    22   1
    13     7     8   1
    14     8     9   1
    15     9    10   1
    16     9    23   2
    17    10    11   1
    18    11    12   1
    19    12    13   1
    20    13    14   1
    21    14    15   1
    22    15    16   2
    23    16    17   1
    24    17    18   1
    25    18    24   1
    26     4    25   1
    27     8    26   1
    28     8    27   1
    29    10    28   1
    30    10    29   1
    31    11    30   1
    32    11    31   1
    33    12    32   1
    34    12    33   1
    35    13    34   1
    36    13    35   1
    37    14    36   1
    38    14    37   1
    39    15    38   1
    40    16    39   1
    41    17    40   1
    42    17    41   1
    43    18    42   1
    44    18    43   1
    45    20    44   1
    46    21    45   1
@<TRIPOS>SUBSTRUCTURE
     1  M1S      1

