@<TRIPOS>MOLECULE
2iwx_ligand_041
    45    46
SMALL
GAST_HUCK
****
This file was generated by PARSER (from files_GN.cpp)

@<TRIPOS>ATOM
      1 C1         62.0913   80.8130   -6.1151 C.2         1 M1S       0.2450
      2 C2         62.0990   81.4467   -4.8466 C.ar        1 M1S       0.0836
      3 C3         61.1898   82.5118   -4.6199 C.ar        1 M1S       0.0971
      4 C4         61.1688   83.1810   -3.3848 C.ar        1 M1S      -0.0045
      5 C5         62.0646   82.8210   -2.3735 C.ar        1 M1S       0.0932
      6 C6         63.0022   81.7903   -2.5878 C.ar        1 M1S       0.0655
      7 C7         63.0238   81.0741   -3.8207 C.ar        1 M1S      -0.0054
      8 C8         63.9968   79.9426   -4.0260 C.3         1 M1S       0.0540
      9 C9         65.3005   80.2959   -4.5817 C.2         1 M1S       0.1171
     10 C10        65.7508   81.6688   -4.8105 C.3         1 M1S       0.0232
     11 C11        67.1612   81.8370   -5.4414 C.3         1 M1S      -0.0368
     12 C12        67.6432   83.3096   -5.5599 C.3         1 M1S      -0.0494
     13 C13        66.7962   84.2670   -6.4436 C.3         1 M1S      -0.0463
     14 C14        66.6195   83.8471   -7.9345 C.3         1 M1S      -0.0365
     15 C15        65.3458   83.2079   -8.2203 C.2         1 M1S      -0.0986
     16 C16        65.2122   81.9600   -8.6997 C.2         1 M1S      -0.0962
     17 C17        63.9354   81.3788   -9.0967 C.3         1 M1S      -0.0086
     18 C18        63.4753   80.2457   -8.1500 C.3         1 M1S       0.0814
     19 O2         60.9319   80.3287   -6.6217 O.2         1 M1S      -0.3725
     20 O3         60.3199   82.9271   -5.5786 O.3         1 M1S      -0.3313
     21 O4         61.9756   83.4659   -1.1847 O.3         1 M1S      -0.3330
     22 CL1        64.1073   81.4880   -1.3352 Cl          1 M1S      -0.0932
     23 O5         66.0548   79.3624   -4.8269 O.2         1 M1S      -0.3883
     24 O1         63.2426   80.7688   -6.8374 O.3         1 M1S      -0.2800
     25 H1         60.4876   83.9262   -3.2194 H           1 M1S       0.0425
     26 H2         63.5417   79.1936   -4.6811 H           1 M1S       0.0663
     27 H3         64.1518   79.4178   -3.0812 H           1 M1S       0.0663
     28 H4         65.7449   82.1873   -3.8497 H           1 M1S       0.0495
     29 H5         65.0262   82.1637   -5.4599 H           1 M1S       0.0495
     30 H6         67.1743   81.3732   -6.4289 H           1 M1S       0.0290
     31 H7         67.8845   81.3026   -4.8209 H           1 M1S       0.0290
     32 H8         68.6620   83.2952   -5.9536 H           1 M1S       0.0268
     33 H9         67.6994   83.7287   -4.5515 H           1 M1S       0.0268
     34 H10        67.3083   85.2347   -6.4261 H           1 M1S       0.0285
     35 H11        65.8240   84.4355   -5.9676 H           1 M1S       0.0285
     36 H12        67.4656   83.2251   -8.2403 H           1 M1S       0.0388
     37 H13        66.6597   84.7474   -8.5518 H           1 M1S       0.0388
     38 H14        64.5266   83.7538   -8.0864 H           1 M1S       0.0450
     39 H15        66.0232   81.3927   -8.8073 H           1 M1S       0.0451
     40 H16        64.0452   80.9709  -10.1043 H           1 M1S       0.0414
     41 H17        63.1452   82.1327   -9.1358 H           1 M1S       0.0414
     42 H18        64.2433   79.4706   -8.0866 H           1 M1S       0.0631
     43 H19        62.5676   79.7887   -8.5580 H           1 M1S       0.0631
     44 H20        60.3323   83.9075   -5.5212 H           1 M1S       0.2508
     45 H21        62.4500   84.3158   -1.3068 H           1 M1S       0.2502
@<TRIPOS>BOND
     1     1     2   1
     2     1    19   2
     3     1    24   1
     4     2     3  ar
     5     2     7  ar
     6     3     4  ar
     7     3    20   1
     8     4     5  ar
     9     5     6  ar
    10     5    21   1
    11     6     7  ar
    12     6    22   1
    13     7     8   1
    14     8     9   1
    15     9    10   1
    16     9    23   2
    17    10    11   1
    18    11    12   1
    19    12    13   1
    20    13    14   1
    21    14    15   1
    22    15    16   2
    23    16    17   1
    24    17    18   1
    25    18    24   1
    26     4    25   1
    27     8    26   1
    28     8    27   1
    29    10    28   1
    30    10    29   1
    31    11    30   1
    32    11    31   1
    33    12    32   1
    34    12    33   1
    35    13    34   1
    36    13    35   1
    37    14    36   1
    38    14    37   1
    39    15    38   1
    40    16    39   1
    41    17    40   1
    42    17    41   1
    43    18    42   1
    44    18    43   1
    45    20    44   1
    46    21    45   1
@<TRIPOS>SUBSTRUCTURE
     1  M1S      1

