@<TRIPOS>MOLECULE
2iwx_ligand_014
    45    46
SMALL
GAST_HUCK
****
This file was generated by PARSER (from files_GN.cpp)

@<TRIPOS>ATOM
      1 C1         57.9861   73.8373   -6.8318 C.2         1 M1S       0.2450
      2 C2         56.7662   74.5348   -6.6147 C.ar        1 M1S       0.0836
      3 C3         55.8414   74.6100   -7.6897 C.ar        1 M1S       0.0971
      4 C4         54.6591   75.3477   -7.5628 C.ar        1 M1S      -0.0045
      5 C5         54.3718   76.0269   -6.3750 C.ar        1 M1S       0.0932
      6 C6         55.2532   75.9480   -5.2788 C.ar        1 M1S       0.0655
      7 C7         56.4507   75.1775   -5.3726 C.ar        1 M1S      -0.0054
      8 C8         57.3127   75.0044   -4.1546 C.3         1 M1S       0.0540
      9 C9         58.3357   76.0146   -3.9023 C.2         1 M1S       0.1171
     10 C10        58.5308   77.2155   -4.7129 C.3         1 M1S       0.0232
     11 C11        59.7802   78.0686   -4.3576 C.3         1 M1S      -0.0368
     12 C12        59.9287   79.3846   -5.1697 C.3         1 M1S      -0.0494
     13 C13        60.0994   79.2502   -6.7075 C.3         1 M1S      -0.0463
     14 C14        61.3367   78.4352   -7.1967 C.3         1 M1S      -0.0365
     15 C15        61.0232   77.0644   -7.5694 C.2         1 M1S      -0.0986
     16 C16        61.5671   75.9773   -6.9974 C.2         1 M1S      -0.0962
     17 C17        61.3332   74.6193   -7.4640 C.3         1 M1S      -0.0086
     18 C18        60.4814   73.7896   -6.4789 C.3         1 M1S       0.0814
     19 O2         57.9931   72.6827   -7.5441 O.2         1 M1S      -0.3725
     20 O3         56.0865   74.0208   -8.8979 O.3         1 M1S      -0.3313
     21 O4         53.2288   76.7506   -6.3163 O.3         1 M1S      -0.3330
     22 CL1        54.8149   76.7993   -3.8695 Cl          1 M1S      -0.0932
     23 O5         59.0638   75.8063   -2.9392 O.2         1 M1S      -0.3883
     24 O1         59.1600   74.3433   -6.3723 O.3         1 M1S      -0.2800
     25 H1         54.0160   75.4151   -8.3530 H           1 M1S       0.0425
     26 H2         57.8091   74.0327   -4.1993 H           1 M1S       0.0663
     27 H3         56.6782   74.9275   -3.2657 H           1 M1S       0.0663
     28 H4         57.6426   77.8421   -4.6111 H           1 M1S       0.0495
     29 H5         58.6131   76.9165   -5.7594 H           1 M1S       0.0495
     30 H6         60.6819   77.4649   -4.4909 H           1 M1S       0.0290
     31 H7         59.7256   78.3485   -3.3027 H           1 M1S       0.0290
     32 H8         60.7965   79.9276   -4.7796 H           1 M1S       0.0268
     33 H9         59.0533   80.0103   -4.9758 H           1 M1S       0.0268
     34 H10        60.2173   80.2650   -7.0913 H           1 M1S       0.0285
     35 H11        59.1764   78.8615   -7.1482 H           1 M1S       0.0285
     36 H12        62.1269   78.4837   -6.4421 H           1 M1S       0.0388
     37 H13        61.7370   78.9149   -8.0951 H           1 M1S       0.0388
     38 H14        60.3893   76.9381   -8.3255 H           1 M1S       0.0450
     39 H15        62.1755   76.0958   -6.2168 H           1 M1S       0.0451
     40 H16        62.3019   74.1314   -7.5905 H           1 M1S       0.0414
     41 H17        60.8369   74.6091   -8.4368 H           1 M1S       0.0414
     42 H18        60.9406   73.7856   -5.4861 H           1 M1S       0.0631
     43 H19        60.4479   72.7554   -6.8314 H           1 M1S       0.0631
     44 H20        55.3977   73.3227   -8.9982 H           1 M1S       0.2508
     45 H21        52.5368   76.0992   -6.0584 H           1 M1S       0.2502
@<TRIPOS>BOND
     1     1     2   1
     2     1    19   2
     3     1    24   1
     4     2     3  ar
     5     2     7  ar
     6     3     4  ar
     7     3    20   1
     8     4     5  ar
     9     5     6  ar
    10     5    21   1
    11     6     7  ar
    12     6    22   1
    13     7     8   1
    14     8     9   1
    15     9    10   1
    16     9    23   2
    17    10    11   1
    18    11    12   1
    19    12    13   1
    20    13    14   1
    21    14    15   1
    22    15    16   2
    23    16    17   1
    24    17    18   1
    25    18    24   1
    26     4    25   1
    27     8    26   1
    28     8    27   1
    29    10    28   1
    30    10    29   1
    31    11    30   1
    32    11    31   1
    33    12    32   1
    34    12    33   1
    35    13    34   1
    36    13    35   1
    37    14    36   1
    38    14    37   1
    39    15    38   1
    40    16    39   1
    41    17    40   1
    42    17    41   1
    43    18    42   1
    44    18    43   1
    45    20    44   1
    46    21    45   1
@<TRIPOS>SUBSTRUCTURE
     1  M1S      1

