@<TRIPOS>MOLECULE
2iwx_ligand_044
    45    46
SMALL
GAST_HUCK
****
This file was generated by PARSER (from files_GN.cpp)

@<TRIPOS>ATOM
      1 C1         64.0220   81.6472   -5.7746 C.2         1 M1S       0.2450
      2 C2         63.7136   81.8494   -4.4030 C.ar        1 M1S       0.0836
      3 C3         64.7233   81.5565   -3.4566 C.ar        1 M1S       0.0971
      4 C4         64.4822   81.7342   -2.0849 C.ar        1 M1S      -0.0045
      5 C5         63.2754   82.2787   -1.6361 C.ar        1 M1S       0.0932
      6 C6         62.2564   82.5950   -2.5544 C.ar        1 M1S       0.0655
      7 C7         62.4519   82.3521   -3.9479 C.ar        1 M1S      -0.0054
      8 C8         61.3628   82.6742   -4.9201 C.3         1 M1S       0.0540
      9 C9         60.5033   81.5641   -5.3194 C.2         1 M1S       0.1171
     10 C10        60.5565   80.2037   -4.7783 C.3         1 M1S       0.0232
     11 C11        59.5193   79.2028   -5.3624 C.3         1 M1S      -0.0368
     12 C12        59.4536   77.8418   -4.6213 C.3         1 M1S      -0.0494
     13 C13        60.7518   76.9872   -4.5932 C.3         1 M1S      -0.0463
     14 C14        61.3366   76.6000   -5.9856 C.3         1 M1S      -0.0365
     15 C15        62.4363   77.4489   -6.4226 C.2         1 M1S      -0.0986
     16 C16        62.4210   78.1974   -7.5384 C.2         1 M1S      -0.0962
     17 C17        63.5654   78.9578   -8.0186 C.3         1 M1S      -0.0086
     18 C18        63.3583   80.4866   -7.9137 C.3         1 M1S       0.0814
     19 O2         65.1704   82.1476   -6.2908 O.2         1 M1S      -0.3725
     20 O3         65.9569   81.1318   -3.8347 O.3         1 M1S      -0.3313
     21 O4         63.1517   82.4987   -0.3027 O.3         1 M1S      -0.3330
     22 CL1        60.8317   83.2601   -1.8999 Cl          1 M1S      -0.0932
     23 O5         59.6246   81.8561   -6.1185 O.2         1 M1S      -0.3883
     24 O1         63.2150   80.8686   -6.5401 O.3         1 M1S      -0.2800
     25 H1         65.2055   81.5074   -1.4009 H           1 M1S       0.0425
     26 H2         61.8174   83.1166   -5.8077 H           1 M1S       0.0663
     27 H3         60.7177   83.4608   -4.5293 H           1 M1S       0.0663
     28 H4         60.4108   80.2535   -3.7007 H           1 M1S       0.0495
     29 H5         61.5519   79.7983   -4.9462 H           1 M1S       0.0495
     30 H6         59.7327   79.0354   -6.4201 H           1 M1S       0.0290
     31 H7         58.5222   79.6500   -5.2994 H           1 M1S       0.0290
     32 H8         58.6618   77.2461   -5.0833 H           1 M1S       0.0268
     33 H9         59.1456   78.0304   -3.5874 H           1 M1S       0.0268
     34 H10        60.4998   76.0611   -4.0682 H           1 M1S       0.0285
     35 H11        61.5060   77.4897   -3.9809 H           1 M1S       0.0285
     36 H12        60.5314   76.5688   -6.7253 H           1 M1S       0.0388
     37 H13        61.7365   75.5842   -5.9228 H           1 M1S       0.0388
     38 H14        63.2606   77.4404   -5.8650 H           1 M1S       0.0450
     39 H15        61.5894   78.2350   -8.0814 H           1 M1S       0.0451
     40 H16        63.7322   78.6946   -9.0663 H           1 M1S       0.0414
     41 H17        64.4780   78.6974   -7.4731 H           1 M1S       0.0414
     42 H18        62.4574   80.7858   -8.4532 H           1 M1S       0.0631
     43 H19        64.2103   80.9913   -8.3755 H           1 M1S       0.0631
     44 H20        66.5496   81.8434   -3.5164 H           1 M1S       0.2508
     45 H21        62.6962   83.3614   -0.2175 H           1 M1S       0.2502
@<TRIPOS>BOND
     1     1     2   1
     2     1    19   2
     3     1    24   1
     4     2     3  ar
     5     2     7  ar
     6     3     4  ar
     7     3    20   1
     8     4     5  ar
     9     5     6  ar
    10     5    21   1
    11     6     7  ar
    12     6    22   1
    13     7     8   1
    14     8     9   1
    15     9    10   1
    16     9    23   2
    17    10    11   1
    18    11    12   1
    19    12    13   1
    20    13    14   1
    21    14    15   1
    22    15    16   2
    23    16    17   1
    24    17    18   1
    25    18    24   1
    26     4    25   1
    27     8    26   1
    28     8    27   1
    29    10    28   1
    30    10    29   1
    31    11    30   1
    32    11    31   1
    33    12    32   1
    34    12    33   1
    35    13    34   1
    36    13    35   1
    37    14    36   1
    38    14    37   1
    39    15    38   1
    40    16    39   1
    41    17    40   1
    42    17    41   1
    43    18    42   1
    44    18    43   1
    45    20    44   1
    46    21    45   1
@<TRIPOS>SUBSTRUCTURE
     1  M1S      1

