@<TRIPOS>MOLECULE
2iwx_ligand_043
    45    46
SMALL
GAST_HUCK
****
This file was generated by PARSER (from files_GN.cpp)

@<TRIPOS>ATOM
      1 C1         58.7093   74.9633   -9.1232 C.2         1 M1S       0.2450
      2 C2         57.3873   75.2944   -8.7265 C.ar        1 M1S       0.0836
      3 C3         56.5612   75.9636   -9.6652 C.ar        1 M1S       0.0971
      4 C4         55.2649   76.3693   -9.3158 C.ar        1 M1S      -0.0045
      5 C5         54.7748   76.1391   -8.0243 C.ar        1 M1S       0.0932
      6 C6         55.5721   75.4663   -7.0732 C.ar        1 M1S       0.0655
      7 C7         56.8846   75.0225   -7.4143 C.ar        1 M1S      -0.0054
      8 C8         57.7064   74.2613   -6.4114 C.3         1 M1S       0.0540
      9 C9         58.5511   75.0504   -5.5175 C.2         1 M1S       0.1171
     10 C10        58.5118   76.5096   -5.4147 C.3         1 M1S       0.0232
     11 C11        59.5731   77.1560   -4.4748 C.3         1 M1S      -0.0368
     12 C12        59.4482   78.6958   -4.3156 C.3         1 M1S      -0.0494
     13 C13        59.6625   79.5643   -5.5876 C.3         1 M1S      -0.0463
     14 C14        61.0505   79.4112   -6.2845 C.3         1 M1S      -0.0365
     15 C15        61.0314   78.5227   -7.4354 C.2         1 M1S      -0.0986
     16 C16        61.7722   77.4052   -7.5424 C.2         1 M1S      -0.0962
     17 C17        61.8287   76.5846   -8.7440 C.3         1 M1S      -0.0086
     18 C18        61.1630   75.2006   -8.5625 C.3         1 M1S       0.0814
     19 O2         58.9326   74.3437  -10.3072 O.2         1 M1S      -0.3725
     20 O3         56.9946   76.2711  -10.9186 O.3         1 M1S      -0.3313
     21 O4         53.5237   76.5781   -7.7349 O.3         1 M1S      -0.3330
     22 CL1        54.8944   75.2273   -5.5287 Cl          1 M1S      -0.0932
     23 O5         59.2939   74.4131   -4.7835 O.2         1 M1S      -0.3883
     24 O1         59.7540   75.3585   -8.3464 O.3         1 M1S      -0.2800
     25 H1         54.6831   76.8589   -9.9983 H           1 M1S       0.0425
     26 H2         58.3366   73.5413   -6.9424 H           1 M1S       0.0663
     27 H3         57.0556   73.6374   -5.7925 H           1 M1S       0.0663
     28 H4         57.5183   76.7994   -5.0654 H           1 M1S       0.0495
     29 H5         58.6474   76.9285   -6.4139 H           1 M1S       0.0495
     30 H6         60.5746   76.9116   -4.8352 H           1 M1S       0.0290
     31 H7         59.4678   76.7163   -3.4784 H           1 M1S       0.0290
     32 H8         60.1724   79.0170   -3.5604 H           1 M1S       0.0268
     33 H9         58.4532   78.9202   -3.9166 H           1 M1S       0.0268
     34 H10        59.5629   80.6092   -5.2731 H           1 M1S       0.0285
     35 H11        58.8499   79.3742   -6.2960 H           1 M1S       0.0285
     36 H12        61.8018   79.1088   -5.5490 H           1 M1S       0.0388
     37 H13        61.3633   80.3917   -6.6559 H           1 M1S       0.0388
     38 H14        60.4528   78.7841   -8.1975 H           1 M1S       0.0450
     39 H15        62.3405   77.1259   -6.7711 H           1 M1S       0.0451
     40 H16        62.8795   76.4398   -9.0067 H           1 M1S       0.0414
     41 H17        61.3511   77.0801   -9.5924 H           1 M1S       0.0414
     42 H18        61.5940   74.6843   -7.7019 H           1 M1S       0.0631
     43 H19        61.3652   74.5960   -9.4510 H           1 M1S       0.0631
     44 H20        57.2252   75.4037  -11.3291 H           1 M1S       0.2508
     45 H21        53.6170   77.1046   -6.9092 H           1 M1S       0.2502
@<TRIPOS>BOND
     1     1     2   1
     2     1    19   2
     3     1    24   1
     4     2     3  ar
     5     2     7  ar
     6     3     4  ar
     7     3    20   1
     8     4     5  ar
     9     5     6  ar
    10     5    21   1
    11     6     7  ar
    12     6    22   1
    13     7     8   1
    14     8     9   1
    15     9    10   1
    16     9    23   2
    17    10    11   1
    18    11    12   1
    19    12    13   1
    20    13    14   1
    21    14    15   1
    22    15    16   2
    23    16    17   1
    24    17    18   1
    25    18    24   1
    26     4    25   1
    27     8    26   1
    28     8    27   1
    29    10    28   1
    30    10    29   1
    31    11    30   1
    32    11    31   1
    33    12    32   1
    34    12    33   1
    35    13    34   1
    36    13    35   1
    37    14    36   1
    38    14    37   1
    39    15    38   1
    40    16    39   1
    41    17    40   1
    42    17    41   1
    43    18    42   1
    44    18    43   1
    45    20    44   1
    46    21    45   1
@<TRIPOS>SUBSTRUCTURE
     1  M1S      1

