@<TRIPOS>MOLECULE
2iwx_ligand_009
    45    46
SMALL
GAST_HUCK
****
This file was generated by PARSER (from files_GN.cpp)

@<TRIPOS>ATOM
      1 C1         55.0277   76.6900   -4.7494 C.2         1 M1S       0.2450
      2 C2         55.5178   76.3228   -6.0292 C.ar        1 M1S       0.0836
      3 C3         54.9491   75.1833   -6.6548 C.ar        1 M1S       0.0971
      4 C4         55.4433   74.7315   -7.8880 C.ar        1 M1S      -0.0045
      5 C5         56.4880   75.4079   -8.5310 C.ar        1 M1S       0.0932
      6 C6         57.0615   76.5527   -7.9360 C.ar        1 M1S       0.0655
      7 C7         56.5801   77.0315   -6.6799 C.ar        1 M1S      -0.0054
      8 C8         57.1721   78.2748   -6.0762 C.3         1 M1S       0.0540
      9 C9         58.3245   78.0944   -5.1966 C.2         1 M1S       0.1171
     10 C10        59.0337   76.8291   -5.0080 C.3         1 M1S       0.0232
     11 C11        60.1645   76.8401   -3.9403 C.3         1 M1S      -0.0368
     12 C12        60.9300   75.4978   -3.7898 C.3         1 M1S      -0.0494
     13 C13        60.1202   74.2713   -3.2821 C.3         1 M1S      -0.0463
     14 C14        59.4510   74.4408   -1.8842 C.3         1 M1S      -0.0365
     15 C15        58.0337   74.7640   -1.9512 C.2         1 M1S      -0.0986
     16 C16        57.4804   75.8739   -1.4346 C.2         1 M1S      -0.0962
     17 C17        56.0470   76.1232   -1.4167 C.3         1 M1S      -0.0086
     18 C18        55.6290   77.2678   -2.3673 C.3         1 M1S       0.0814
     19 O2         53.6932   76.7867   -4.5378 O.2         1 M1S      -0.3725
     20 O3         53.9721   74.4322   -6.0761 O.3         1 M1S      -0.3313
     21 O4         56.9148   74.9080   -9.7228 O.3         1 M1S      -0.3330
     22 CL1        58.3478   77.2942   -8.7708 Cl          1 M1S      -0.0932
     23 O5         58.7178   79.0989   -4.6162 O.2         1 M1S      -0.3883
     24 O1         55.8998   76.9002   -3.7272 O.3         1 M1S      -0.2800
     25 H1         55.0421   73.8952   -8.3196 H           1 M1S       0.0425
     26 H2         56.3944   78.8033   -5.5194 H           1 M1S       0.0663
     27 H3         57.4571   78.9743   -6.8651 H           1 M1S       0.0663
     28 H4         59.4683   76.5372   -5.9665 H           1 M1S       0.0495
     29 H5         58.3067   76.0685   -4.7219 H           1 M1S       0.0495
     30 H6         59.7478   77.1279   -2.9728 H           1 M1S       0.0290
     31 H7         60.8958   77.6045   -4.2194 H           1 M1S       0.0290
     32 H8         61.7611   75.6622   -3.0982 H           1 M1S       0.0268
     33 H9         61.3688   75.2410   -4.7582 H           1 M1S       0.0268
     34 H10        60.8264   73.4381   -3.2140 H           1 M1S       0.0285
     35 H11        59.3823   73.9821   -4.0357 H           1 M1S       0.0285
     36 H12        60.0069   75.1749   -1.2937 H           1 M1S       0.0388
     37 H13        59.5268   73.4927   -1.3462 H           1 M1S       0.0388
     38 H14        57.4388   74.0865   -2.3723 H           1 M1S       0.0450
     39 H15        58.0696   76.5656   -1.0295 H           1 M1S       0.0451
     40 H16        55.7595   76.3855   -0.3952 H           1 M1S       0.0414
     41 H17        55.4795   75.2278   -1.6898 H           1 M1S       0.0414
     42 H18        56.1861   78.1788   -2.1346 H           1 M1S       0.0631
     43 H19        54.5671   77.4794   -2.2200 H           1 M1S       0.0631
     44 H20        53.1733   75.0007   -6.0269 H           1 M1S       0.2508
     45 H21        57.2498   75.6746  -10.2334 H           1 M1S       0.2502
@<TRIPOS>BOND
     1     1     2   1
     2     1    19   2
     3     1    24   1
     4     2     3  ar
     5     2     7  ar
     6     3     4  ar
     7     3    20   1
     8     4     5  ar
     9     5     6  ar
    10     5    21   1
    11     6     7  ar
    12     6    22   1
    13     7     8   1
    14     8     9   1
    15     9    10   1
    16     9    23   2
    17    10    11   1
    18    11    12   1
    19    12    13   1
    20    13    14   1
    21    14    15   1
    22    15    16   2
    23    16    17   1
    24    17    18   1
    25    18    24   1
    26     4    25   1
    27     8    26   1
    28     8    27   1
    29    10    28   1
    30    10    29   1
    31    11    30   1
    32    11    31   1
    33    12    32   1
    34    12    33   1
    35    13    34   1
    36    13    35   1
    37    14    36   1
    38    14    37   1
    39    15    38   1
    40    16    39   1
    41    17    40   1
    42    17    41   1
    43    18    42   1
    44    18    43   1
    45    20    44   1
    46    21    45   1
@<TRIPOS>SUBSTRUCTURE
     1  M1S      1

