@<TRIPOS>MOLECULE
2iwx_ligand_040
    45    46
SMALL
GAST_HUCK
****
This file was generated by PARSER (from files_GN.cpp)

@<TRIPOS>ATOM
      1 C1         58.4895   77.7278   -7.1503 C.2         1 M1S       0.2450
      2 C2         57.1654   77.5944   -6.6628 C.ar        1 M1S       0.0836
      3 C3         56.4397   78.7852   -6.4392 C.ar        1 M1S       0.0971
      4 C4         55.1191   78.7496   -5.9788 C.ar        1 M1S      -0.0045
      5 C5         54.4749   77.5230   -5.7704 C.ar        1 M1S       0.0932
      6 C6         55.1796   76.3194   -5.9786 C.ar        1 M1S       0.0655
      7 C7         56.5390   76.3366   -6.4052 C.ar        1 M1S      -0.0054
      8 C8         57.3410   75.0765   -6.5530 C.3         1 M1S       0.0540
      9 C9         58.2471   74.7725   -5.4479 C.2         1 M1S       0.1171
     10 C10        58.1200   75.3576   -4.1101 C.3         1 M1S       0.0232
     11 C11        59.1231   74.8381   -3.0441 C.3         1 M1S      -0.0368
     12 C12        58.9676   75.4679   -1.6352 C.3         1 M1S      -0.0494
     13 C13        59.2795   76.9860   -1.4970 C.3         1 M1S      -0.0463
     14 C14        60.7161   77.4330   -1.9052 C.3         1 M1S      -0.0365
     15 C15        60.7933   77.9944   -3.2500 C.2         1 M1S      -0.0986
     16 C16        61.5278   77.4855   -4.2494 C.2         1 M1S      -0.0962
     17 C17        61.6492   78.0992   -5.5643 C.3         1 M1S      -0.0086
     18 C18        60.9312   77.2962   -6.6751 C.3         1 M1S       0.0814
     19 O2         58.7324   78.4172   -8.2907 O.2         1 M1S      -0.3725
     20 O3         56.9943   80.0076   -6.6431 O.3         1 M1S      -0.3313
     21 O4         53.1698   77.5035   -5.3879 O.3         1 M1S      -0.3330
     22 CL1        54.3266   74.8736   -5.7271 Cl          1 M1S      -0.0932
     23 O5         59.1210   73.9483   -5.6668 O.2         1 M1S      -0.3883
     24 O1         59.5212   77.2390   -6.4209 O.3         1 M1S      -0.2800
     25 H1         54.6055   79.6179   -5.8055 H           1 M1S       0.0425
     26 H2         57.9189   75.1415   -7.4791 H           1 M1S       0.0663
     27 H3         56.7065   74.2053   -6.6915 H           1 M1S       0.0663
     28 H4         57.1085   75.1615   -3.7511 H           1 M1S       0.0495
     29 H5         58.2410   76.4372   -4.1914 H           1 M1S       0.0495
     30 H6         60.1449   74.9946   -3.3935 H           1 M1S       0.0290
     31 H7         58.9757   73.7597   -2.9410 H           1 M1S       0.0290
     32 H8         59.6248   74.9253   -0.9485 H           1 M1S       0.0268
     33 H9         57.9442   75.3028   -1.2927 H           1 M1S       0.0268
     34 H10        59.1481   77.2372   -0.4423 H           1 M1S       0.0285
     35 H11        58.5274   77.5647   -2.0403 H           1 M1S       0.0285
     36 H12        61.4164   76.6024   -1.7758 H           1 M1S       0.0388
     37 H13        61.0473   78.2237   -1.2222 H           1 M1S       0.0388
     38 H14        60.2805   78.8330   -3.4126 H           1 M1S       0.0450
     39 H15        62.0198   76.6302   -4.0986 H           1 M1S       0.0451
     40 H16        62.7154   78.1768   -5.8037 H           1 M1S       0.0414
     41 H17        61.2472   79.1212   -5.5617 H           1 M1S       0.0414
     42 H18        61.3230   76.2759   -6.7031 H           1 M1S       0.0631
     43 H19        61.1442   77.7657   -7.6354 H           1 M1S       0.0631
     44 H20        57.9063   79.9367   -6.2740 H           1 M1S       0.2508
     45 H21        52.7691   78.3598   -5.6472 H           1 M1S       0.2502
@<TRIPOS>BOND
     1     1     2   1
     2     1    19   2
     3     1    24   1
     4     2     3  ar
     5     2     7  ar
     6     3     4  ar
     7     3    20   1
     8     4     5  ar
     9     5     6  ar
    10     5    21   1
    11     6     7  ar
    12     6    22   1
    13     7     8   1
    14     8     9   1
    15     9    10   1
    16     9    23   2
    17    10    11   1
    18    11    12   1
    19    12    13   1
    20    13    14   1
    21    14    15   1
    22    15    16   2
    23    16    17   1
    24    17    18   1
    25    18    24   1
    26     4    25   1
    27     8    26   1
    28     8    27   1
    29    10    28   1
    30    10    29   1
    31    11    30   1
    32    11    31   1
    33    12    32   1
    34    12    33   1
    35    13    34   1
    36    13    35   1
    37    14    36   1
    38    14    37   1
    39    15    38   1
    40    16    39   1
    41    17    40   1
    42    17    41   1
    43    18    42   1
    44    18    43   1
    45    20    44   1
    46    21    45   1
@<TRIPOS>SUBSTRUCTURE
     1  M1S      1

