@<TRIPOS>MOLECULE
2iwx_ligand_023
    45    46
SMALL
GAST_HUCK
****
This file was generated by PARSER (from files_GN.cpp)

@<TRIPOS>ATOM
      1 C1         59.6945   73.3881   -9.9889 C.2         1 M1S       0.2450
      2 C2         59.9557   72.2005   -9.2545 C.ar        1 M1S       0.0836
      3 C3         59.0756   71.1021   -9.4309 C.ar        1 M1S       0.0971
      4 C4         59.2570   69.9173   -8.7025 C.ar        1 M1S      -0.0045
      5 C5         60.3149   69.7945   -7.7899 C.ar        1 M1S       0.0932
      6 C6         61.2107   70.8693   -7.6033 C.ar        1 M1S       0.0655
      7 C7         61.0509   72.0815   -8.3401 C.ar        1 M1S      -0.0054
      8 C8         62.0396   73.1998   -8.1614 C.3         1 M1S       0.0540
      9 C9         61.7450   74.1598   -7.1006 C.2         1 M1S       0.1171
     10 C10        60.6230   74.0404   -6.1658 C.3         1 M1S       0.0232
     11 C11        60.4443   75.2204   -5.1686 C.3         1 M1S      -0.0368
     12 C12        59.2596   75.0668   -4.1750 C.3         1 M1S      -0.0494
     13 C13        57.8231   75.0702   -4.7727 C.3         1 M1S      -0.0463
     14 C14        57.4315   76.3313   -5.6053 C.3         1 M1S      -0.0365
     15 C15        57.4615   76.1039   -7.0422 C.2         1 M1S      -0.0986
     16 C16        58.2669   76.7490   -7.9023 C.2         1 M1S      -0.0962
     17 C17        58.2174   76.5593   -9.3450 C.3         1 M1S      -0.0086
     18 C18        59.5006   75.9068   -9.9092 C.3         1 M1S       0.0814
     19 O2         59.4473   73.3172  -11.3184 O.2         1 M1S      -0.3725
     20 O3         57.9991   71.1549  -10.2615 O.3         1 M1S      -0.3313
     21 O4         60.4647   68.6318   -7.1004 O.3         1 M1S      -0.3330
     22 CL1        62.4623   70.6488   -6.4650 Cl          1 M1S      -0.0932
     23 O5         62.5075   75.1145   -7.0162 O.2         1 M1S      -0.3883
     24 O1         59.6900   74.5940   -9.3592 O.3         1 M1S      -0.2800
     25 H1         58.6123   69.1351   -8.8382 H           1 M1S       0.0425
     26 H2         62.1401   73.7477   -9.1004 H           1 M1S       0.0663
     27 H3         63.0367   72.7923   -7.9851 H           1 M1S       0.0663
     28 H4         60.7583   73.1239   -5.5892 H           1 M1S       0.0495
     29 H5         59.7035   73.9454   -6.7447 H           1 M1S       0.0495
     30 H6         60.3272   76.1510   -5.7268 H           1 M1S       0.0290
     31 H7         61.3602   75.3107   -4.5760 H           1 M1S       0.0290
     32 H8         59.3229   75.8850   -3.4519 H           1 M1S       0.0268
     33 H9         59.3962   74.1366   -3.6123 H           1 M1S       0.0268
     34 H10        57.1322   74.9994   -3.9265 H           1 M1S       0.0285
     35 H11        57.6733   74.1597   -5.3579 H           1 M1S       0.0285
     36 H12        58.0573   77.1806   -5.3136 H           1 M1S       0.0388
     37 H13        56.4033   76.6083   -5.3575 H           1 M1S       0.0388
     38 H14        56.8207   75.4344   -7.4037 H           1 M1S       0.0450
     39 H15        58.9237   77.4100   -7.5472 H           1 M1S       0.0451
     40 H16        58.0870   77.5410   -9.8064 H           1 M1S       0.0414
     41 H17        57.3642   75.9441   -9.6415 H           1 M1S       0.0414
     42 H18        60.3728   76.5165   -9.6571 H           1 M1S       0.0631
     43 H19        59.4241   75.8656  -10.9992 H           1 M1S       0.0631
     44 H20        58.3769   71.2233  -11.1682 H           1 M1S       0.2508
     45 H21        59.6122   68.1518   -7.1774 H           1 M1S       0.2502
@<TRIPOS>BOND
     1     1     2   1
     2     1    19   2
     3     1    24   1
     4     2     3  ar
     5     2     7  ar
     6     3     4  ar
     7     3    20   1
     8     4     5  ar
     9     5     6  ar
    10     5    21   1
    11     6     7  ar
    12     6    22   1
    13     7     8   1
    14     8     9   1
    15     9    10   1
    16     9    23   2
    17    10    11   1
    18    11    12   1
    19    12    13   1
    20    13    14   1
    21    14    15   1
    22    15    16   2
    23    16    17   1
    24    17    18   1
    25    18    24   1
    26     4    25   1
    27     8    26   1
    28     8    27   1
    29    10    28   1
    30    10    29   1
    31    11    30   1
    32    11    31   1
    33    12    32   1
    34    12    33   1
    35    13    34   1
    36    13    35   1
    37    14    36   1
    38    14    37   1
    39    15    38   1
    40    16    39   1
    41    17    40   1
    42    17    41   1
    43    18    42   1
    44    18    43   1
    45    20    44   1
    46    21    45   1
@<TRIPOS>SUBSTRUCTURE
     1  M1S      1

