@<TRIPOS>MOLECULE
2j62_ligand_049
    54    56
SMALL
GAST_HUCK
****
This file was generated by PARSER (from files_GN.cpp)

@<TRIPOS>ATOM
      1 CAZ        35.8543   38.5921   15.2909 C.3         1 GSZ      -0.0456
      2 CAN        34.4852   38.1065   15.8469 C.3         1 GSZ       0.0432
      3 CBA        34.0628   36.7442   15.2233 C.3         1 GSZ      -0.0456
      4 CAL        33.4311   39.0932   15.6618 C.2         1 GSZ       0.1811
      5 OAM        33.4191   39.7981   14.6431 O.2         1 GSZ      -0.3966
      6 NAK        32.4815   39.2579   16.5955 N.am        1 GSZ      -0.2638
      7 CAC        31.3423   40.1417   16.5586 C.3         1 GSZ       0.1446
      8 CAB        31.7110   41.6156   16.1727 C.3         1 GSZ       0.1222
      9 OAG        32.0934   41.7063   14.8040 O.3         1 GSZ      -0.3842
     10 CAA        30.5467   42.6158   16.4193 C.3         1 GSZ       0.1176
     11 OAH        31.0216   43.9179   16.0823 O.3         1 GSZ      -0.3858
     12 CAF        30.0210   42.5626   17.8882 C.3         1 GSZ       0.1168
     13 CAI        28.5764   43.1501   18.0118 C.3         1 GSZ       0.0768
     14 OAJ        28.2961   44.1976   17.0840 O.3         1 GSZ      -0.3919
     15 NAE        30.0762   41.2268   18.4466 N.pl3       1 GSZ      -0.2497
     16 CAQ        29.6505   40.8624   19.6668 C.2         1 GSZ       0.0236
     17 CAD        30.6758   40.1520   17.8948 C.2         1 GSZ       0.1393
     18 NAO        30.6334   39.1134   18.7557 N.2         1 GSZ      -0.3317
     19 CAP        30.0048   39.5411   19.8704 C.2         1 GSZ      -0.0178
     20 CAR        29.8208   38.8070   21.1407 C.3         1 GSZ      -0.0191
     21 CAS        30.7978   39.2195   22.2905 C.3         1 GSZ      -0.0133
     22 CAT        31.1350   40.6677   22.3604 C.ar        1 GSZ      -0.0416
     23 CAU        32.0252   41.2286   21.4118 C.ar        1 GSZ      -0.0602
     24 CAV        32.2513   42.6187   21.3707 C.ar        1 GSZ      -0.0686
     25 CAW        31.6131   43.4583   22.2938 C.ar        1 GSZ      -0.0687
     26 CAX        30.7475   42.9148   23.2588 C.ar        1 GSZ      -0.0686
     27 CAY        30.5036   41.5296   23.2914 C.ar        1 GSZ      -0.0602
     28 H1         36.6263   37.8668   15.5319 H           1 GSZ       0.0257
     29 H2         36.1285   39.5531   15.7391 H           1 GSZ       0.0257
     30 H3         35.8144   38.7147   14.2017 H           1 GSZ       0.0257
     31 H4         34.6404   37.9391   16.9233 H           1 GSZ       0.0532
     32 H5         33.1209   36.4018   15.6662 H           1 GSZ       0.0257
     33 H6         34.8305   36.0019   15.4165 H           1 GSZ       0.0257
     34 H7         33.9272   36.8432   14.1405 H           1 GSZ       0.0257
     35 H8         32.5186   38.6466   17.3624 H           1 GSZ       0.1888
     36 H9         30.6085   39.7533   15.8452 H           1 GSZ       0.0820
     37 H10        32.5686   41.9212   16.7735 H           1 GSZ       0.0672
     38 H11        33.0638   41.7258   14.8062 H           1 GSZ       0.2103
     39 H12        29.7360   42.3608   15.7302 H           1 GSZ       0.0654
     40 H13        30.6867   44.5292   16.7767 H           1 GSZ       0.2100
     41 H14        30.6740   43.1919   18.5002 H           1 GSZ       0.0699
     42 H15        28.4303   43.5668   19.0226 H           1 GSZ       0.0589
     43 H16        27.8335   42.3589   17.8618 H           1 GSZ       0.0589
     44 H17        28.5860   45.0225   17.5332 H           1 GSZ       0.2095
     45 H18        29.1938   41.4596   20.3522 H           1 GSZ       0.0663
     46 H19        29.9443   37.7403   20.9449 H           1 GSZ       0.0392
     47 H20        28.7881   38.9569   21.4706 H           1 GSZ       0.0392
     48 H21        31.7182   38.6407   22.1836 H           1 GSZ       0.0442
     49 H22        30.3524   38.8956   23.2377 H           1 GSZ       0.0442
     50 H23        32.4738   40.6344   20.7060 H           1 GSZ       0.0557
     51 H24        32.8675   43.0128   20.6490 H           1 GSZ       0.0599
     52 H25        31.7791   44.4720   22.2606 H           1 GSZ       0.0559
     53 H26        30.2813   43.5312   23.9249 H           1 GSZ       0.0599
     54 H27        29.8483   41.1577   23.9745 H           1 GSZ       0.0557
@<TRIPOS>BOND
     1     1     2   1
     2     2     3   1
     3     2     4   1
     4     4     5   2
     5     4     6  am
     6     6     7   1
     7     7     8   1
     8     7    17   1
     9     8     9   1
    10     8    10   1
    11    10    11   1
    12    10    12   1
    13    12    13   1
    14    12    15   1
    15    13    14   1
    16    15    16   1
    17    15    17   1
    18    16    19   2
    19    17    18   2
    20    18    19   1
    21    19    20   1
    22    20    21   1
    23    21    22   1
    24    22    23  ar
    25    22    27  ar
    26    23    24  ar
    27    24    25  ar
    28    25    26  ar
    29    26    27  ar
    30     1    28   1
    31     1    29   1
    32     1    30   1
    33     2    31   1
    34     3    32   1
    35     3    33   1
    36     3    34   1
    37     6    35   1
    38     7    36   1
    39     8    37   1
    40     9    38   1
    41    10    39   1
    42    11    40   1
    43    12    41   1
    44    13    42   1
    45    13    43   1
    46    14    44   1
    47    16    45   1
    48    20    46   1
    49    20    47   1
    50    21    48   1
    51    21    49   1
    52    23    50   1
    53    24    51   1
    54    25    52   1
    55    26    53   1
    56    27    54   1
@<TRIPOS>SUBSTRUCTURE
     1  GSZ      1

