@<TRIPOS>MOLECULE
2j62_ligand_055
    54    56
SMALL
GAST_HUCK
****
This file was generated by PARSER (from files_GN.cpp)

@<TRIPOS>ATOM
      1 CAZ        26.8768   45.1188   10.3184 C.3         1 GSZ      -0.0456
      2 CAN        28.0915   44.3753   10.9384 C.3         1 GSZ       0.0432
      3 CBA        28.2653   42.9679   10.2920 C.3         1 GSZ      -0.0456
      4 CAL        27.9801   44.3862   12.3976 C.2         1 GSZ       0.1811
      5 OAM        28.0525   45.4885   12.9431 O.2         1 GSZ      -0.3966
      6 NAK        27.8042   43.2755   13.1117 N.am        1 GSZ      -0.2638
      7 CAC        27.5683   43.0414   14.5175 C.3         1 GSZ       0.1446
      8 CAB        27.1502   44.2376   15.4505 C.3         1 GSZ       0.1222
      9 OAG        26.1992   43.8013   16.4209 O.3         1 GSZ      -0.3842
     10 CAA        28.3492   44.8959   16.2090 C.3         1 GSZ       0.1176
     11 OAH        29.1327   45.6487   15.2819 O.3         1 GSZ      -0.3858
     12 CAF        29.2704   43.8669   16.9341 C.3         1 GSZ       0.1168
     13 CAI        28.7752   43.4209   18.3478 C.3         1 GSZ       0.0768
     14 OAJ        28.0061   42.2190   18.3420 O.3         1 GSZ      -0.3919
     15 NAE        29.4945   42.7182   16.1029 N.pl3       1 GSZ      -0.2497
     16 CAQ        30.4154   41.7742   16.3242 C.2         1 GSZ       0.0236
     17 CAD        28.7182   42.2969   15.0790 C.2         1 GSZ       0.1393
     18 NAO        29.1092   41.0718   14.6860 N.2         1 GSZ      -0.3317
     19 CAP        30.1525   40.7210   15.4602 C.2         1 GSZ      -0.0178
     20 CAR        30.8121   39.4070   15.4843 C.3         1 GSZ      -0.0191
     21 CAS        30.5145   38.5971   16.7786 C.3         1 GSZ      -0.0133
     22 CAT        30.7583   39.3574   18.0366 C.ar        1 GSZ      -0.0416
     23 CAU        32.0713   39.4905   18.5477 C.ar        1 GSZ      -0.0602
     24 CAV        32.3186   40.2559   19.7036 C.ar        1 GSZ      -0.0686
     25 CAW        31.2518   40.8956   20.3645 C.ar        1 GSZ      -0.0687
     26 CAX        29.9478   40.7862   19.8627 C.ar        1 GSZ      -0.0686
     27 CAY        29.7013   40.0242   18.7039 C.ar        1 GSZ      -0.0602
     28 H1         27.0112   45.2338    9.2411 H           1 GSZ       0.0257
     29 H2         26.7722   46.1197   10.7470 H           1 GSZ       0.0257
     30 H3         25.9489   44.5663   10.5051 H           1 GSZ       0.0257
     31 H4         28.9924   44.9353   10.6670 H           1 GSZ       0.0532
     32 H5         29.1328   42.4591   10.7210 H           1 GSZ       0.0257
     33 H6         28.4273   43.0649    9.2134 H           1 GSZ       0.0257
     34 H7         27.3794   42.3458   10.4538 H           1 GSZ       0.0257
     35 H8         27.8129   42.4597   12.5824 H           1 GSZ       0.1888
     36 H9         26.7237   42.3459   14.5210 H           1 GSZ       0.0820
     37 H10        26.6164   44.9880   14.8660 H           1 GSZ       0.0672
     38 H11        25.4495   43.4088   15.9258 H           1 GSZ       0.2103
     39 H12        27.9767   45.6098   16.9473 H           1 GSZ       0.0654
     40 H13        28.6406   46.4840   15.1684 H           1 GSZ       0.2100
     41 H14        30.2367   44.3695   17.0879 H           1 GSZ       0.0699
     42 H15        28.1877   44.2103   18.8196 H           1 GSZ       0.0589
     43 H16        29.6381   43.2266   18.9853 H           1 GSZ       0.0589
     44 H17        27.3452   42.3363   17.6303 H           1 GSZ       0.2095
     45 H18        31.1292   41.7869   17.0578 H           1 GSZ       0.0663
     46 H19        31.8905   39.5452   15.3588 H           1 GSZ       0.0392
     47 H20        30.4508   38.8292   14.6325 H           1 GSZ       0.0392
     48 H21        31.1355   37.6970   16.7908 H           1 GSZ       0.0442
     49 H22        29.4750   38.2555   16.7289 H           1 GSZ       0.0442
     50 H23        32.8551   39.0329   18.0779 H           1 GSZ       0.0557
     51 H24        33.2701   40.3457   20.0667 H           1 GSZ       0.0599
     52 H25        31.4314   41.4363   21.2150 H           1 GSZ       0.0559
     53 H26        29.1699   41.2497   20.3403 H           1 GSZ       0.0599
     54 H27        28.7457   39.9674   18.3483 H           1 GSZ       0.0557
@<TRIPOS>BOND
     1     1     2   1
     2     2     3   1
     3     2     4   1
     4     4     5   2
     5     4     6  am
     6     6     7   1
     7     7     8   1
     8     7    17   1
     9     8     9   1
    10     8    10   1
    11    10    11   1
    12    10    12   1
    13    12    13   1
    14    12    15   1
    15    13    14   1
    16    15    16   1
    17    15    17   1
    18    16    19   2
    19    17    18   2
    20    18    19   1
    21    19    20   1
    22    20    21   1
    23    21    22   1
    24    22    23  ar
    25    22    27  ar
    26    23    24  ar
    27    24    25  ar
    28    25    26  ar
    29    26    27  ar
    30     1    28   1
    31     1    29   1
    32     1    30   1
    33     2    31   1
    34     3    32   1
    35     3    33   1
    36     3    34   1
    37     6    35   1
    38     7    36   1
    39     8    37   1
    40     9    38   1
    41    10    39   1
    42    11    40   1
    43    12    41   1
    44    13    42   1
    45    13    43   1
    46    14    44   1
    47    16    45   1
    48    20    46   1
    49    20    47   1
    50    21    48   1
    51    21    49   1
    52    23    50   1
    53    24    51   1
    54    25    52   1
    55    26    53   1
    56    27    54   1
@<TRIPOS>SUBSTRUCTURE
     1  GSZ      1

