@<TRIPOS>MOLECULE
2j62_ligand_030
    54    56
SMALL
GAST_HUCK
****
This file was generated by PARSER (from files_GN.cpp)

@<TRIPOS>ATOM
      1 CAZ        34.8084   34.2842   14.1340 C.3         1 GSZ      -0.0456
      2 CAN        33.8094   35.1102   14.9909 C.3         1 GSZ       0.0432
      3 CBA        32.4341   35.2614   14.2894 C.3         1 GSZ      -0.0456
      4 CAL        34.3912   36.4005   15.3599 C.2         1 GSZ       0.1811
      5 OAM        34.9202   36.4974   16.4679 O.2         1 GSZ      -0.3966
      6 NAK        34.4533   37.4065   14.4939 N.am        1 GSZ      -0.2638
      7 CAC        35.0345   38.7001   14.7101 C.3         1 GSZ       0.1446
      8 CAB        34.0320   39.8120   14.2971 C.3         1 GSZ       0.1222
      9 OAG        32.9256   39.8336   15.2029 O.3         1 GSZ      -0.3842
     10 CAA        34.7279   41.2006   14.2791 C.3         1 GSZ       0.1176
     11 OAH        33.7951   42.2102   13.8871 O.3         1 GSZ      -0.3858
     12 CAF        35.9713   41.2112   13.3203 C.3         1 GSZ       0.1168
     13 CAI        36.8873   42.4315   13.6188 C.3         1 GSZ       0.0768
     14 OAJ        37.4765   42.3422   14.9117 O.3         1 GSZ      -0.3919
     15 NAE        36.6991   39.9640   13.3358 N.pl3       1 GSZ      -0.2497
     16 CAQ        37.8394   39.6577   12.6828 C.2         1 GSZ       0.0236
     17 CAD        36.2835   38.8223   13.9319 C.2         1 GSZ       0.1393
     18 NAO        37.1372   37.8206   13.6795 N.2         1 GSZ      -0.3317
     19 CAP        38.1089   38.3062   12.8994 C.2         1 GSZ      -0.0178
     20 CAR        39.1931   37.4910   12.3260 C.3         1 GSZ      -0.0191
     21 CAS        38.6741   36.4096   11.3343 C.3         1 GSZ      -0.0133
     22 CAT        38.4331   36.8951    9.9417 C.ar        1 GSZ      -0.0416
     23 CAU        39.0385   36.2441    8.8327 C.ar        1 GSZ      -0.0602
     24 CAV        38.8018   36.6900    7.5216 C.ar        1 GSZ      -0.0686
     25 CAW        37.9632   37.7935    7.2883 C.ar        1 GSZ      -0.0687
     26 CAX        37.3459   38.4428    8.3715 C.ar        1 GSZ      -0.0686
     27 CAY        37.5657   37.9839    9.6875 C.ar        1 GSZ      -0.0602
     28 H1         34.3826   33.2988   13.9218 H           1 GSZ       0.0257
     29 H2         35.7472   34.1398   14.6720 H           1 GSZ       0.0257
     30 H3         35.0205   34.7816   13.1855 H           1 GSZ       0.0257
     31 H4         33.6297   34.5318   15.9019 H           1 GSZ       0.0532
     32 H5         31.7742   35.9095   14.8749 H           1 GSZ       0.0257
     33 H6         31.9558   34.2925   14.1883 H           1 GSZ       0.0257
     34 H7         32.5505   35.6955   13.2922 H           1 GSZ       0.0257
     35 H8         34.0799   37.2449   13.6117 H           1 GSZ       0.1888
     36 H9         35.3022   38.8548   15.7564 H           1 GSZ       0.0820
     37 H10        33.6442   39.6056   13.2914 H           1 GSZ       0.0672
     38 H11        32.3820   39.0550   14.9595 H           1 GSZ       0.2103
     39 H12        35.0475   41.4265   15.3052 H           1 GSZ       0.0654
     40 H13        33.2236   42.3551   14.6714 H           1 GSZ       0.2100
     41 H14        35.5923   41.3354   12.2981 H           1 GSZ       0.0699
     42 H15        36.3024   43.3539   13.5719 H           1 GSZ       0.0589
     43 H16        37.6785   42.5091   12.8678 H           1 GSZ       0.0589
     44 H17        38.1978   41.6817   14.8382 H           1 GSZ       0.2095
     45 H18        38.3898   40.2825   12.0918 H           1 GSZ       0.0663
     46 H19        39.7068   37.0050   13.1613 H           1 GSZ       0.0392
     47 H20        39.9285   38.1247   11.8333 H           1 GSZ       0.0392
     48 H21        37.7523   35.9606   11.7102 H           1 GSZ       0.0442
     49 H22        39.4155   35.6068   11.3256 H           1 GSZ       0.0442
     50 H23        39.6628   35.4435    8.9794 H           1 GSZ       0.0557
     51 H24        39.2453   36.2111    6.7314 H           1 GSZ       0.0599
     52 H25        37.7862   38.1124    6.3306 H           1 GSZ       0.0559
     53 H26        36.7239   39.2372    8.2062 H           1 GSZ       0.0599
     54 H27        37.0735   38.4513   10.4534 H           1 GSZ       0.0557
@<TRIPOS>BOND
     1     1     2   1
     2     2     3   1
     3     2     4   1
     4     4     5   2
     5     4     6  am
     6     6     7   1
     7     7     8   1
     8     7    17   1
     9     8     9   1
    10     8    10   1
    11    10    11   1
    12    10    12   1
    13    12    13   1
    14    12    15   1
    15    13    14   1
    16    15    16   1
    17    15    17   1
    18    16    19   2
    19    17    18   2
    20    18    19   1
    21    19    20   1
    22    20    21   1
    23    21    22   1
    24    22    23  ar
    25    22    27  ar
    26    23    24  ar
    27    24    25  ar
    28    25    26  ar
    29    26    27  ar
    30     1    28   1
    31     1    29   1
    32     1    30   1
    33     2    31   1
    34     3    32   1
    35     3    33   1
    36     3    34   1
    37     6    35   1
    38     7    36   1
    39     8    37   1
    40     9    38   1
    41    10    39   1
    42    11    40   1
    43    12    41   1
    44    13    42   1
    45    13    43   1
    46    14    44   1
    47    16    45   1
    48    20    46   1
    49    20    47   1
    50    21    48   1
    51    21    49   1
    52    23    50   1
    53    24    51   1
    54    25    52   1
    55    26    53   1
    56    27    54   1
@<TRIPOS>SUBSTRUCTURE
     1  GSZ      1

