@<TRIPOS>MOLECULE
2j62_ligand_008
    54    56
SMALL
GAST_HUCK
****
This file was generated by PARSER (from files_GN.cpp)

@<TRIPOS>ATOM
      1 CAZ        35.9868   32.4431   13.4293 C.3         1 GSZ      -0.0456
      2 CAN        35.9682   33.8166   14.1608 C.3         1 GSZ       0.0432
      3 CBA        34.7406   33.9151   15.1070 C.3         1 GSZ      -0.0456
      4 CAL        36.0204   34.9796   13.2777 C.2         1 GSZ       0.1811
      5 OAM        35.9477   34.8475   12.0607 O.2         1 GSZ      -0.3966
      6 NAK        36.1984   36.1807   13.8184 N.am        1 GSZ      -0.2638
      7 CAC        36.2609   37.4321   13.1145 C.3         1 GSZ       0.1446
      8 CAB        37.7413   37.8632   12.9447 C.3         1 GSZ       0.1222
      9 OAG        38.4161   36.9298   12.1015 O.3         1 GSZ      -0.3842
     10 CAA        37.8169   39.2902   12.3439 C.3         1 GSZ       0.1176
     11 OAH        39.1929   39.6337   12.1548 O.3         1 GSZ      -0.3858
     12 CAF        37.0570   40.3397   13.2314 C.3         1 GSZ       0.1168
     13 CAI        36.7578   41.6232   12.4022 C.3         1 GSZ       0.0768
     14 OAJ        36.7862   42.7846   13.2281 O.3         1 GSZ      -0.3919
     15 NAE        35.8736   39.7881   13.8596 N.pl3       1 GSZ      -0.2497
     16 CAQ        34.9546   40.4178   14.6215 C.2         1 GSZ       0.0236
     17 CAD        35.5163   38.4841   13.8374 C.2         1 GSZ       0.1393
     18 NAO        34.3726   38.2923   14.5163 N.2         1 GSZ      -0.3317
     19 CAP        33.9947   39.4807   15.0075 C.2         1 GSZ      -0.0178
     20 CAR        32.7248   39.7066   15.7361 C.3         1 GSZ      -0.0191
     21 CAS        31.7519   40.6494   14.9613 C.3         1 GSZ      -0.0133
     22 CAT        30.3065   40.3723   15.2070 C.ar        1 GSZ      -0.0416
     23 CAU        29.7742   40.4053   16.5176 C.ar        1 GSZ      -0.0602
     24 CAV        28.4121   40.1338   16.7467 C.ar        1 GSZ      -0.0686
     25 CAW        27.5600   39.8358   15.6694 C.ar        1 GSZ      -0.0687
     26 CAX        28.0690   39.8089   14.3614 C.ar        1 GSZ      -0.0686
     27 CAY        29.4308   40.0753   14.1312 C.ar        1 GSZ      -0.0602
     28 H1         36.0533   31.6269   14.1521 H           1 GSZ       0.0257
     29 H2         36.8540   32.3778   12.7652 H           1 GSZ       0.0257
     30 H3         35.0799   32.3083   12.8301 H           1 GSZ       0.0257
     31 H4         36.8700   33.8382   14.7793 H           1 GSZ       0.0532
     32 H5         34.7930   34.8208   15.7149 H           1 GSZ       0.0257
     33 H6         34.7125   33.0582   15.7859 H           1 GSZ       0.0257
     34 H7         33.8119   33.9337   14.5307 H           1 GSZ       0.0257
     35 H8         36.3408   36.2026   14.7808 H           1 GSZ       0.1888
     36 H9         35.7989   37.3531   12.1225 H           1 GSZ       0.0820
     37 H10        38.2382   37.8638   13.9199 H           1 GSZ       0.0672
     38 H11        39.3710   37.1138   12.2175 H           1 GSZ       0.2103
     39 H12        37.3614   39.2555   11.3473 H           1 GSZ       0.0654
     40 H13        39.3160   40.5316   12.5387 H           1 GSZ       0.2100
     41 H14        37.7301   40.6186   14.0422 H           1 GSZ       0.0699
     42 H15        35.7743   41.5465   11.9273 H           1 GSZ       0.0589
     43 H16        37.5008   41.7667   11.6119 H           1 GSZ       0.0589
     44 H17        36.9601   43.5271   12.6094 H           1 GSZ       0.2095
     45 H18        34.9324   41.4178   14.8491 H           1 GSZ       0.0663
     46 H19        32.9343   40.1249   16.7213 H           1 GSZ       0.0392
     47 H20        32.2574   38.7312   15.8906 H           1 GSZ       0.0392
     48 H21        31.9538   40.5727   13.8876 H           1 GSZ       0.0442
     49 H22        31.9608   41.6884   15.2429 H           1 GSZ       0.0442
     50 H23        30.3792   40.6206   17.3144 H           1 GSZ       0.0557
     51 H24        28.0409   40.1595   17.6974 H           1 GSZ       0.0599
     52 H25        26.5727   39.6352   15.8364 H           1 GSZ       0.0559
     53 H26        27.4539   39.5955   13.5724 H           1 GSZ       0.0599
     54 H27        29.7805   40.0480   13.1724 H           1 GSZ       0.0557
@<TRIPOS>BOND
     1     1     2   1
     2     2     3   1
     3     2     4   1
     4     4     5   2
     5     4     6  am
     6     6     7   1
     7     7     8   1
     8     7    17   1
     9     8     9   1
    10     8    10   1
    11    10    11   1
    12    10    12   1
    13    12    13   1
    14    12    15   1
    15    13    14   1
    16    15    16   1
    17    15    17   1
    18    16    19   2
    19    17    18   2
    20    18    19   1
    21    19    20   1
    22    20    21   1
    23    21    22   1
    24    22    23  ar
    25    22    27  ar
    26    23    24  ar
    27    24    25  ar
    28    25    26  ar
    29    26    27  ar
    30     1    28   1
    31     1    29   1
    32     1    30   1
    33     2    31   1
    34     3    32   1
    35     3    33   1
    36     3    34   1
    37     6    35   1
    38     7    36   1
    39     8    37   1
    40     9    38   1
    41    10    39   1
    42    11    40   1
    43    12    41   1
    44    13    42   1
    45    13    43   1
    46    14    44   1
    47    16    45   1
    48    20    46   1
    49    20    47   1
    50    21    48   1
    51    21    49   1
    52    23    50   1
    53    24    51   1
    54    25    52   1
    55    26    53   1
    56    27    54   1
@<TRIPOS>SUBSTRUCTURE
     1  GSZ      1

