@<TRIPOS>MOLECULE
2j62_ligand_046
    54    56
SMALL
GAST_HUCK
****
This file was generated by PARSER (from files_GN.cpp)

@<TRIPOS>ATOM
      1 CAZ        34.2965   33.0336   15.7248 C.3         1 GSZ      -0.0456
      2 CAN        33.8856   34.5281   15.6498 C.3         1 GSZ       0.0432
      3 CBA        32.4575   34.7293   16.2355 C.3         1 GSZ      -0.0456
      4 CAL        34.0596   35.0370   14.2915 C.2         1 GSZ       0.1811
      5 OAM        33.0972   35.0581   13.5292 O.2         1 GSZ      -0.3966
      6 NAK        35.2647   35.4350   13.8901 N.am        1 GSZ      -0.2638
      7 CAC        35.6206   35.9144   12.5804 C.3         1 GSZ       0.1446
      8 CAB        36.9347   35.2496   12.0882 C.3         1 GSZ       0.1222
      9 OAG        36.7512   33.8465   11.9041 O.3         1 GSZ      -0.3842
     10 CAA        37.4578   35.9169   10.7832 C.3         1 GSZ       0.1176
     11 OAH        38.6760   35.2812   10.3893 O.3         1 GSZ      -0.3858
     12 CAF        37.6759   37.4603   10.9594 C.3         1 GSZ       0.1168
     13 CAI        37.7399   38.2305    9.5990 C.3         1 GSZ       0.0768
     14 OAJ        38.4258   37.5489    8.5565 O.3         1 GSZ      -0.3919
     15 NAE        36.6883   38.0529   11.8373 N.pl3       1 GSZ      -0.2497
     16 CAQ        36.5223   39.3614   12.1031 C.2         1 GSZ       0.0236
     17 CAD        35.7699   37.3851   12.5730 C.2         1 GSZ       0.1393
     18 NAO        34.9868   38.2553   13.2353 N.2         1 GSZ      -0.3317
     19 CAP        35.4385   39.4895   12.9624 C.2         1 GSZ      -0.0178
     20 CAR        34.8648   40.7535   13.4650 C.3         1 GSZ      -0.0191
     21 CAS        34.7063   40.7995   15.0186 C.3         1 GSZ      -0.0133
     22 CAT        33.2891   40.7756   15.4790 C.ar        1 GSZ      -0.0416
     23 CAU        32.4549   41.8927   15.2380 C.ar        1 GSZ      -0.0602
     24 CAV        31.1226   41.9056   15.6907 C.ar        1 GSZ      -0.0686
     25 CAW        30.6092   40.8072   16.3993 C.ar        1 GSZ      -0.0687
     26 CAX        31.4245   39.6875   16.6437 C.ar        1 GSZ      -0.0686
     27 CAY        32.7550   39.6696   16.1810 C.ar        1 GSZ      -0.0602
     28 H1         34.2488   32.6836   16.7588 H           1 GSZ       0.0257
     29 H2         35.3184   32.8956   15.3664 H           1 GSZ       0.0257
     30 H3         33.6286   32.4197   15.1160 H           1 GSZ       0.0257
     31 H4         34.5610   35.0859   16.3058 H           1 GSZ       0.0532
     32 H5         32.1467   35.7721   16.1465 H           1 GSZ       0.0257
     33 H6         32.4463   34.4587   17.2935 H           1 GSZ       0.0257
     34 H7         31.7289   34.1063   15.7125 H           1 GSZ       0.0257
     35 H8         35.9748   35.4170   14.5587 H           1 GSZ       0.1888
     36 H9         34.8492   35.6793   11.8510 H           1 GSZ       0.0820
     37 H10        37.6959   35.3783   12.8560 H           1 GSZ       0.0672
     38 H11        36.0042   33.7669   11.2751 H           1 GSZ       0.2103
     39 H12        36.7242   35.7437    9.9906 H           1 GSZ       0.0654
     40 H13        39.2844   35.3716   11.1546 H           1 GSZ       0.2100
     41 H14        38.6442   37.5930   11.4536 H           1 GSZ       0.0699
     42 H15        38.2664   39.1754    9.7514 H           1 GSZ       0.0589
     43 H16        36.7348   38.4651    9.2417 H           1 GSZ       0.0589
     44 H17        37.7359   36.9971    8.1221 H           1 GSZ       0.2095
     45 H18        37.0593   40.1372   11.7029 H           1 GSZ       0.0663
     46 H19        33.9056   40.8909   12.9611 H           1 GSZ       0.0392
     47 H20        35.5006   41.5858   13.1471 H           1 GSZ       0.0392
     48 H21        35.1623   41.7183   15.4002 H           1 GSZ       0.0442
     49 H22        35.2664   39.9793   15.4772 H           1 GSZ       0.0442
     50 H23        32.8224   42.7092   14.7462 H           1 GSZ       0.0557
     51 H24        30.5344   42.7210   15.5119 H           1 GSZ       0.0599
     52 H25        29.6411   40.8208   16.7307 H           1 GSZ       0.0559
     53 H26        31.0554   38.8923   17.1670 H           1 GSZ       0.0599
     54 H27        33.3300   38.8447   16.3697 H           1 GSZ       0.0557
@<TRIPOS>BOND
     1     1     2   1
     2     2     3   1
     3     2     4   1
     4     4     5   2
     5     4     6  am
     6     6     7   1
     7     7     8   1
     8     7    17   1
     9     8     9   1
    10     8    10   1
    11    10    11   1
    12    10    12   1
    13    12    13   1
    14    12    15   1
    15    13    14   1
    16    15    16   1
    17    15    17   1
    18    16    19   2
    19    17    18   2
    20    18    19   1
    21    19    20   1
    22    20    21   1
    23    21    22   1
    24    22    23  ar
    25    22    27  ar
    26    23    24  ar
    27    24    25  ar
    28    25    26  ar
    29    26    27  ar
    30     1    28   1
    31     1    29   1
    32     1    30   1
    33     2    31   1
    34     3    32   1
    35     3    33   1
    36     3    34   1
    37     6    35   1
    38     7    36   1
    39     8    37   1
    40     9    38   1
    41    10    39   1
    42    11    40   1
    43    12    41   1
    44    13    42   1
    45    13    43   1
    46    14    44   1
    47    16    45   1
    48    20    46   1
    49    20    47   1
    50    21    48   1
    51    21    49   1
    52    23    50   1
    53    24    51   1
    54    25    52   1
    55    26    53   1
    56    27    54   1
@<TRIPOS>SUBSTRUCTURE
     1  GSZ      1

