@<TRIPOS>MOLECULE
2j62_ligand_061
    54    56
SMALL
GAST_HUCK
****
This file was generated by PARSER (from files_GN.cpp)

@<TRIPOS>ATOM
      1 CAZ        27.8420   40.2743   13.7140 C.3         1 GSZ      -0.0456
      2 CAN        27.2646   40.0952   15.1454 C.3         1 GSZ       0.0432
      3 CBA        26.0083   40.9796   15.3898 C.3         1 GSZ      -0.0456
      4 CAL        28.2944   40.3532   16.1450 C.2         1 GSZ       0.1811
      5 OAM        29.1252   39.4793   16.3613 O.2         1 GSZ      -0.3966
      6 NAK        28.3110   41.5148   16.7922 N.am        1 GSZ      -0.2638
      7 CAC        29.2685   42.0126   17.7369 C.3         1 GSZ       0.1446
      8 CAB        30.5745   42.4806   17.0010 C.3         1 GSZ       0.1222
      9 OAG        31.0203   43.7146   17.5692 O.3         1 GSZ      -0.3842
     10 CAA        31.7244   41.4304   17.0205 C.3         1 GSZ       0.1176
     11 OAH        31.4138   40.3977   16.0845 O.3         1 GSZ      -0.3858
     12 CAF        31.9680   40.8092   18.4444 C.3         1 GSZ       0.1168
     13 CAI        32.8940   41.6888   19.3585 C.3         1 GSZ       0.0768
     14 OAJ        32.8841   41.3416   20.7562 O.3         1 GSZ      -0.3919
     15 NAE        30.7246   40.5116   19.1051 N.pl3       1 GSZ      -0.2497
     16 CAQ        30.5492   39.6461   20.1159 C.2         1 GSZ       0.0236
     17 CAD        29.5319   41.0857   18.8597 C.2         1 GSZ       0.1393
     18 NAO        28.6125   40.6256   19.7308 N.2         1 GSZ      -0.3317
     19 CAP        29.2276   39.7379   20.5343 C.2         1 GSZ      -0.0178
     20 CAR        28.5852   39.0050   21.6489 C.3         1 GSZ      -0.0191
     21 CAS        29.4128   38.8965   22.9598 C.3         1 GSZ      -0.0133
     22 CAT        29.9880   40.1980   23.3904 C.ar        1 GSZ      -0.0416
     23 CAU        29.2152   41.1180   24.1350 C.ar        1 GSZ      -0.0602
     24 CAV        29.7238   42.3960   24.4408 C.ar        1 GSZ      -0.0686
     25 CAW        31.0035   42.7740   23.9968 C.ar        1 GSZ      -0.0687
     26 CAX        31.7978   41.8524   23.2900 C.ar        1 GSZ      -0.0686
     27 CAY        31.2925   40.5712   22.9956 C.ar        1 GSZ      -0.0602
     28 H1         27.0902   40.0240   12.9608 H           1 GSZ       0.0257
     29 H2         28.6995   39.6089   13.5656 H           1 GSZ       0.0257
     30 H3         28.1700   41.3065   13.5448 H           1 GSZ       0.0257
     31 H4         26.9312   39.0532   15.2201 H           1 GSZ       0.0532
     32 H5         25.6539   40.8693   16.4184 H           1 GSZ       0.0257
     33 H6         25.1978   40.6853   14.7229 H           1 GSZ       0.0257
     34 H7         26.2309   42.0352   15.2052 H           1 GSZ       0.0257
     35 H8         27.6111   42.1388   16.5499 H           1 GSZ       0.1888
     36 H9         28.7935   42.8926   18.1834 H           1 GSZ       0.0820
     37 H10        30.3452   42.7148   15.9595 H           1 GSZ       0.0672
     38 H11        30.3445   44.3816   17.3130 H           1 GSZ       0.2103
     39 H12        32.6422   41.8978   16.6599 H           1 GSZ       0.0654
     40 H13        32.2406   39.8832   15.9754 H           1 GSZ       0.2100
     41 H14        32.4905   39.8488   18.2919 H           1 GSZ       0.0699
     42 H15        32.5994   42.7411   19.2969 H           1 GSZ       0.0589
     43 H16        33.9311   41.6094   19.0043 H           1 GSZ       0.0589
     44 H17        32.0082   41.6635   21.0549 H           1 GSZ       0.2095
     45 H18        31.2773   39.0712   20.5463 H           1 GSZ       0.0663
     46 H19        28.3648   37.9961   21.2913 H           1 GSZ       0.0392
     47 H20        27.6330   39.4902   21.8725 H           1 GSZ       0.0392
     48 H21        30.2098   38.1590   22.8126 H           1 GSZ       0.0442
     49 H22        28.7746   38.5034   23.7549 H           1 GSZ       0.0442
     50 H23        28.2742   40.8677   24.4518 H           1 GSZ       0.0557
     51 H24        29.1651   43.0548   24.9904 H           1 GSZ       0.0599
     52 H25        31.3622   43.7066   24.2149 H           1 GSZ       0.0559
     53 H26        32.7437   42.1066   22.9889 H           1 GSZ       0.0599
     54 H27        31.8681   39.9246   22.4515 H           1 GSZ       0.0557
@<TRIPOS>BOND
     1     1     2   1
     2     2     3   1
     3     2     4   1
     4     4     5   2
     5     4     6  am
     6     6     7   1
     7     7     8   1
     8     7    17   1
     9     8     9   1
    10     8    10   1
    11    10    11   1
    12    10    12   1
    13    12    13   1
    14    12    15   1
    15    13    14   1
    16    15    16   1
    17    15    17   1
    18    16    19   2
    19    17    18   2
    20    18    19   1
    21    19    20   1
    22    20    21   1
    23    21    22   1
    24    22    23  ar
    25    22    27  ar
    26    23    24  ar
    27    24    25  ar
    28    25    26  ar
    29    26    27  ar
    30     1    28   1
    31     1    29   1
    32     1    30   1
    33     2    31   1
    34     3    32   1
    35     3    33   1
    36     3    34   1
    37     6    35   1
    38     7    36   1
    39     8    37   1
    40     9    38   1
    41    10    39   1
    42    11    40   1
    43    12    41   1
    44    13    42   1
    45    13    43   1
    46    14    44   1
    47    16    45   1
    48    20    46   1
    49    20    47   1
    50    21    48   1
    51    21    49   1
    52    23    50   1
    53    24    51   1
    54    25    52   1
    55    26    53   1
    56    27    54   1
@<TRIPOS>SUBSTRUCTURE
     1  GSZ      1

