@<TRIPOS>MOLECULE
2j62_ligand_035
    54    56
SMALL
GAST_HUCK
****
This file was generated by PARSER (from files_GN.cpp)

@<TRIPOS>ATOM
      1 CAZ        34.1439   41.7226   14.5071 C.3         1 GSZ      -0.0456
      2 CAN        35.6080   41.6083   13.9968 C.3         1 GSZ       0.0432
      3 CBA        35.9057   42.6301   12.8688 C.3         1 GSZ      -0.0456
      4 CAL        35.9471   40.2619   13.5449 C.2         1 GSZ       0.1811
      5 OAM        35.1152   39.6351   12.9008 O.2         1 GSZ      -0.3966
      6 NAK        37.1493   39.7579   13.8085 N.am        1 GSZ      -0.2638
      7 CAC        37.7043   38.4878   13.4335 C.3         1 GSZ       0.1446
      8 CAB        38.5219   38.5448   12.1030 C.3         1 GSZ       0.1222
      9 OAG        39.7318   37.7969   12.2385 O.3         1 GSZ      -0.3842
     10 CAA        37.7649   38.0316   10.8393 C.3         1 GSZ       0.1176
     11 OAH        36.8675   39.0393   10.3757 O.3         1 GSZ      -0.3858
     12 CAF        37.0133   36.6709   11.0705 C.3         1 GSZ       0.1168
     13 CAI        37.9013   35.4075   10.7941 C.3         1 GSZ       0.0768
     14 OAJ        37.3294   34.5615    9.7966 O.3         1 GSZ      -0.3919
     15 NAE        36.4178   36.6100   12.3826 N.pl3       1 GSZ      -0.2497
     16 CAQ        35.4595   35.7638   12.7894 C.2         1 GSZ       0.0236
     17 CAD        36.7231   37.3835   13.4433 C.2         1 GSZ       0.1393
     18 NAO        35.9476   37.0621   14.4914 N.2         1 GSZ      -0.3317
     19 CAP        35.1546   36.0440   14.1184 C.2         1 GSZ      -0.0178
     20 CAR        34.1281   35.4519   15.0089 C.3         1 GSZ      -0.0191
     21 CAS        33.2788   34.2758   14.4437 C.3         1 GSZ      -0.0133
     22 CAT        34.0326   33.0016   14.2708 C.ar        1 GSZ      -0.0416
     23 CAU        34.6307   32.3664   15.3853 C.ar        1 GSZ      -0.0602
     24 CAV        35.3584   31.1722   15.2337 C.ar        1 GSZ      -0.0686
     25 CAW        35.4841   30.5849   13.9616 C.ar        1 GSZ      -0.0687
     26 CAX        34.8769   31.1892   12.8470 C.ar        1 GSZ      -0.0686
     27 CAY        34.1502   32.3817   13.0008 C.ar        1 GSZ      -0.0602
     28 H1         33.9548   42.7313   14.8799 H           1 GSZ       0.0257
     29 H2         33.9682   41.0199   15.3247 H           1 GSZ       0.0257
     30 H3         33.4319   41.5148   13.7048 H           1 GSZ       0.0257
     31 H4         36.2479   41.8756   14.8447 H           1 GSZ       0.0532
     32 H5         36.9584   42.5764   12.5777 H           1 GSZ       0.0257
     33 H6         35.7026   43.6424   13.2175 H           1 GSZ       0.0257
     34 H7         35.2875   42.4337   11.9881 H           1 GSZ       0.0257
     35 H8         37.7485   40.3281   14.3210 H           1 GSZ       0.1888
     36 H9         38.4079   38.2610   14.2374 H           1 GSZ       0.0820
     37 H10        38.8408   39.5753   11.9192 H           1 GSZ       0.0672
     38 H11        39.4592   36.8590   12.2964 H           1 GSZ       0.2103
     39 H12        38.4847   37.9223   10.0238 H           1 GSZ       0.0654
     40 H13        35.9687   38.7502   10.6253 H           1 GSZ       0.2100
     41 H14        36.1880   36.6554   10.3484 H           1 GSZ       0.0699
     42 H15        38.0191   34.8067   11.6959 H           1 GSZ       0.0589
     43 H16        38.9045   35.6778   10.4607 H           1 GSZ       0.0589
     44 H17        37.1155   35.1488    9.0380 H           1 GSZ       0.2095
     45 H18        35.0192   35.0581   12.2035 H           1 GSZ       0.0663
     46 H19        33.4406   36.2555   15.2804 H           1 GSZ       0.0392
     47 H20        34.6248   35.1312   15.9263 H           1 GSZ       0.0392
     48 H21        32.8231   34.6004   13.5046 H           1 GSZ       0.0442
     49 H22        32.4571   34.0827   15.1364 H           1 GSZ       0.0442
     50 H23        34.5425   32.7698   16.3219 H           1 GSZ       0.0557
     51 H24        35.7940   30.7323   16.0467 H           1 GSZ       0.0599
     52 H25        36.0121   29.7153   13.8505 H           1 GSZ       0.0559
     53 H26        34.9640   30.7591   11.9224 H           1 GSZ       0.0599
     54 H27        33.7147   32.8015   12.1748 H           1 GSZ       0.0557
@<TRIPOS>BOND
     1     1     2   1
     2     2     3   1
     3     2     4   1
     4     4     5   2
     5     4     6  am
     6     6     7   1
     7     7     8   1
     8     7    17   1
     9     8     9   1
    10     8    10   1
    11    10    11   1
    12    10    12   1
    13    12    13   1
    14    12    15   1
    15    13    14   1
    16    15    16   1
    17    15    17   1
    18    16    19   2
    19    17    18   2
    20    18    19   1
    21    19    20   1
    22    20    21   1
    23    21    22   1
    24    22    23  ar
    25    22    27  ar
    26    23    24  ar
    27    24    25  ar
    28    25    26  ar
    29    26    27  ar
    30     1    28   1
    31     1    29   1
    32     1    30   1
    33     2    31   1
    34     3    32   1
    35     3    33   1
    36     3    34   1
    37     6    35   1
    38     7    36   1
    39     8    37   1
    40     9    38   1
    41    10    39   1
    42    11    40   1
    43    12    41   1
    44    13    42   1
    45    13    43   1
    46    14    44   1
    47    16    45   1
    48    20    46   1
    49    20    47   1
    50    21    48   1
    51    21    49   1
    52    23    50   1
    53    24    51   1
    54    25    52   1
    55    26    53   1
    56    27    54   1
@<TRIPOS>SUBSTRUCTURE
     1  GSZ      1

