@<TRIPOS>MOLECULE
2j62_ligand_019
    54    56
SMALL
GAST_HUCK
****
This file was generated by PARSER (from files_GN.cpp)

@<TRIPOS>ATOM
      1 CAZ        37.0522   40.0419   12.5015 C.3         1 GSZ      -0.0456
      2 CAN        35.9505   40.4918   13.4978 C.3         1 GSZ       0.0432
      3 CBA        36.2748   41.8799   14.1166 C.3         1 GSZ      -0.0456
      4 CAL        35.7209   39.4625   14.5056 C.2         1 GSZ       0.1811
      5 OAM        36.4757   39.3806   15.4628 O.2         1 GSZ      -0.3966
      6 NAK        34.7479   38.5739   14.3363 N.am        1 GSZ      -0.2638
      7 CAC        34.3716   37.5207   15.2383 C.3         1 GSZ       0.1446
      8 CAB        34.3858   36.1528   14.4880 C.3         1 GSZ       0.1222
      9 OAG        35.7285   35.7884   14.1662 O.3         1 GSZ      -0.3842
     10 CAA        33.7030   35.0592   15.3494 C.3         1 GSZ       0.1176
     11 OAH        33.7237   33.7927   14.6813 O.3         1 GSZ      -0.3858
     12 CAF        32.2253   35.4375   15.7221 C.3         1 GSZ       0.1168
     13 CAI        31.6356   34.5579   16.8803 C.3         1 GSZ       0.0768
     14 OAJ        32.4324   33.4464   17.2881 O.3         1 GSZ      -0.3919
     15 NAE        32.0713   36.8583   15.9754 N.pl3       1 GSZ      -0.2497
     16 CAQ        30.9601   37.5149   16.3522 C.2         1 GSZ       0.0236
     17 CAD        33.0182   37.8018   15.7664 C.2         1 GSZ       0.1393
     18 NAO        32.5299   39.0278   16.0254 N.2         1 GSZ      -0.3317
     19 CAP        31.2542   38.8751   16.4010 C.2         1 GSZ      -0.0178
     20 CAR        30.3095   39.9840   16.6400 C.3         1 GSZ      -0.0191
     21 CAS        30.8136   41.0765   17.6320 C.3         1 GSZ      -0.0133
     22 CAT        31.0030   40.6313   19.0415 C.ar        1 GSZ      -0.0416
     23 CAU        32.2488   40.7870   19.6946 C.ar        1 GSZ      -0.0602
     24 CAV        32.3930   40.4829   21.0597 C.ar        1 GSZ      -0.0686
     25 CAW        31.2903   40.0144   21.7941 C.ar        1 GSZ      -0.0687
     26 CAX        30.0552   39.8332   21.1586 C.ar        1 GSZ      -0.0686
     27 CAY        29.9100   40.1421   19.7954 C.ar        1 GSZ      -0.0602
     28 H1         37.1997   40.7981   11.7262 H           1 GSZ       0.0257
     29 H2         36.7647   39.1090   12.0113 H           1 GSZ       0.0257
     30 H3         38.0039   39.8868   13.0197 H           1 GSZ       0.0257
     31 H4         35.0292   40.6283   12.9090 H           1 GSZ       0.0532
     32 H5         35.4888   42.1745   14.8167 H           1 GSZ       0.0257
     33 H6         36.3448   42.6495   13.3403 H           1 GSZ       0.0257
     34 H7         37.2284   41.8509   14.6531 H           1 GSZ       0.0257
     35 H8         34.2040   38.6578   13.5379 H           1 GSZ       0.1888
     36 H9         35.0413   37.4512   16.1056 H           1 GSZ       0.0820
     37 H10        33.8454   36.2544   13.5411 H           1 GSZ       0.0672
     38 H11        36.1902   35.7015   15.0302 H           1 GSZ       0.2103
     39 H12        34.2905   34.9522   16.2659 H           1 GSZ       0.0654
     40 H13        34.6586   33.5257   14.6458 H           1 GSZ       0.2100
     41 H14        31.6228   35.2369   14.8207 H           1 GSZ       0.0699
     42 H15        30.6631   34.1635   16.5776 H           1 GSZ       0.0589
     43 H16        31.4725   35.1619   17.7754 H           1 GSZ       0.0589
     44 H17        32.5222   32.8859   16.5105 H           1 GSZ       0.2095
     45 H18        30.0417   37.1015   16.5234 H           1 GSZ       0.0663
     46 H19        29.3481   39.5774   16.9647 H           1 GSZ       0.0392
     47 H20        30.1281   40.4708   15.6760 H           1 GSZ       0.0392
     48 H21        30.0809   41.8851   17.6497 H           1 GSZ       0.0442
     49 H22        31.7347   41.5068   17.2321 H           1 GSZ       0.0442
     50 H23        33.0637   41.1612   19.1847 H           1 GSZ       0.0557
     51 H24        33.2928   40.6200   21.5253 H           1 GSZ       0.0599
     52 H25        31.3845   39.8167   22.7931 H           1 GSZ       0.0559
     53 H26        29.2413   39.4925   21.6900 H           1 GSZ       0.0599
     54 H27        28.9876   40.0304   19.3724 H           1 GSZ       0.0557
@<TRIPOS>BOND
     1     1     2   1
     2     2     3   1
     3     2     4   1
     4     4     5   2
     5     4     6  am
     6     6     7   1
     7     7     8   1
     8     7    17   1
     9     8     9   1
    10     8    10   1
    11    10    11   1
    12    10    12   1
    13    12    13   1
    14    12    15   1
    15    13    14   1
    16    15    16   1
    17    15    17   1
    18    16    19   2
    19    17    18   2
    20    18    19   1
    21    19    20   1
    22    20    21   1
    23    21    22   1
    24    22    23  ar
    25    22    27  ar
    26    23    24  ar
    27    24    25  ar
    28    25    26  ar
    29    26    27  ar
    30     1    28   1
    31     1    29   1
    32     1    30   1
    33     2    31   1
    34     3    32   1
    35     3    33   1
    36     3    34   1
    37     6    35   1
    38     7    36   1
    39     8    37   1
    40     9    38   1
    41    10    39   1
    42    11    40   1
    43    12    41   1
    44    13    42   1
    45    13    43   1
    46    14    44   1
    47    16    45   1
    48    20    46   1
    49    20    47   1
    50    21    48   1
    51    21    49   1
    52    23    50   1
    53    24    51   1
    54    25    52   1
    55    26    53   1
    56    27    54   1
@<TRIPOS>SUBSTRUCTURE
     1  GSZ      1

