@<TRIPOS>MOLECULE
2j62_ligand_052
    54    56
SMALL
GAST_HUCK
****
This file was generated by PARSER (from files_GN.cpp)

@<TRIPOS>ATOM
      1 CAZ        34.4813   33.2525   15.4172 C.3         1 GSZ      -0.0456
      2 CAN        34.0579   34.7426   15.3891 C.3         1 GSZ       0.0432
      3 CBA        32.6053   34.9253   15.9178 C.3         1 GSZ      -0.0456
      4 CAL        34.2543   35.2986   14.0534 C.2         1 GSZ       0.1811
      5 OAM        33.2783   35.4060   13.3119 O.2         1 GSZ      -0.3966
      6 NAK        35.4714   35.6232   13.6272 N.am        1 GSZ      -0.2638
      7 CAC        35.8271   36.0605   12.2973 C.3         1 GSZ       0.1446
      8 CAB        37.2254   35.5207   11.8866 C.3         1 GSZ       0.1222
      9 OAG        37.2122   34.0946   11.8127 O.3         1 GSZ      -0.3842
     10 CAA        37.6822   36.1552   10.5404 C.3         1 GSZ       0.1176
     11 OAH        38.9600   35.6307   10.1768 O.3         1 GSZ      -0.3858
     12 CAF        37.7487   37.7198   10.6292 C.3         1 GSZ       0.1168
     13 CAI        37.7140   38.3930    9.2195 C.3         1 GSZ       0.0768
     14 OAJ        38.4344   37.6808    8.2220 O.3         1 GSZ      -0.3919
     15 NAE        36.6997   38.2596   11.4679 N.pl3       1 GSZ      -0.2497
     16 CAQ        36.4043   39.5523   11.6898 C.2         1 GSZ       0.0236
     17 CAD        35.8263   37.5324   12.2050 C.2         1 GSZ       0.1393
     18 NAO        34.9447   38.3404   12.8107 N.2         1 GSZ      -0.3317
     19 CAP        35.2789   39.5998   12.4981 C.2         1 GSZ      -0.0178
     20 CAR        34.6080   40.7924   13.0630 C.3         1 GSZ      -0.0191
     21 CAS        34.8106   41.0234   14.5975 C.3         1 GSZ      -0.0133
     22 CAT        35.6512   39.9955   15.2788 C.ar        1 GSZ      -0.0416
     23 CAU        35.0501   38.8866   15.9135 C.ar        1 GSZ      -0.0602
     24 CAV        35.8438   37.8324   16.4086 C.ar        1 GSZ      -0.0686
     25 CAW        37.2379   37.8652   16.2529 C.ar        1 GSZ      -0.0687
     26 CAX        37.8435   38.9534   15.6026 C.ar        1 GSZ      -0.0686
     27 CAY        37.0581   40.0138   15.1224 C.ar        1 GSZ      -0.0602
     28 H1         34.3851   32.8528   16.4292 H           1 GSZ       0.0257
     29 H2         35.5244   33.1484   15.1082 H           1 GSZ       0.0257
     30 H3         33.8550   32.6620   14.7454 H           1 GSZ       0.0257
     31 H4         34.7124   35.2651   16.0898 H           1 GSZ       0.0532
     32 H5         32.3259   35.9823   15.9121 H           1 GSZ       0.0257
     33 H6         32.5217   34.5535   16.9406 H           1 GSZ       0.0257
     34 H7         31.8951   34.3744   15.2970 H           1 GSZ       0.0257
     35 H8         36.1990   35.5361   14.2718 H           1 GSZ       0.1888
     36 H9         35.1132   35.6980   11.5562 H           1 GSZ       0.0820
     37 H10        37.9439   35.8005   12.6557 H           1 GSZ       0.0672
     38 H11        36.5750   33.8692   11.1024 H           1 GSZ       0.2103
     39 H12        36.9634   35.8669    9.7666 H           1 GSZ       0.0654
     40 H13        38.8492   34.6556   10.1883 H           1 GSZ       0.2100
     41 H14        38.7010   37.9819   11.1020 H           1 GSZ       0.0699
     42 H15        38.1583   39.3895    9.2815 H           1 GSZ       0.0589
     43 H16        36.6810   38.5028    8.8807 H           1 GSZ       0.0589
     44 H17        37.7763   37.0454    7.8607 H           1 GSZ       0.2095
     45 H18        36.9138   40.3639   11.3275 H           1 GSZ       0.0663
     46 H19        33.5398   40.6970   12.8425 H           1 GSZ       0.0392
     47 H20        34.9627   41.6732   12.5226 H           1 GSZ       0.0392
     48 H21        33.8317   41.0794   15.0861 H           1 GSZ       0.0442
     49 H22        35.2685   42.0053   14.7549 H           1 GSZ       0.0442
     50 H23        34.0336   38.8242   16.0054 H           1 GSZ       0.0557
     51 H24        35.4050   37.0411   16.8703 H           1 GSZ       0.0599
     52 H25        37.8113   37.1017   16.6134 H           1 GSZ       0.0559
     53 H26        38.8557   38.9583   15.4679 H           1 GSZ       0.0599
     54 H27        37.5111   40.7858   14.6221 H           1 GSZ       0.0557
@<TRIPOS>BOND
     1     1     2   1
     2     2     3   1
     3     2     4   1
     4     4     5   2
     5     4     6  am
     6     6     7   1
     7     7     8   1
     8     7    17   1
     9     8     9   1
    10     8    10   1
    11    10    11   1
    12    10    12   1
    13    12    13   1
    14    12    15   1
    15    13    14   1
    16    15    16   1
    17    15    17   1
    18    16    19   2
    19    17    18   2
    20    18    19   1
    21    19    20   1
    22    20    21   1
    23    21    22   1
    24    22    23  ar
    25    22    27  ar
    26    23    24  ar
    27    24    25  ar
    28    25    26  ar
    29    26    27  ar
    30     1    28   1
    31     1    29   1
    32     1    30   1
    33     2    31   1
    34     3    32   1
    35     3    33   1
    36     3    34   1
    37     6    35   1
    38     7    36   1
    39     8    37   1
    40     9    38   1
    41    10    39   1
    42    11    40   1
    43    12    41   1
    44    13    42   1
    45    13    43   1
    46    14    44   1
    47    16    45   1
    48    20    46   1
    49    20    47   1
    50    21    48   1
    51    21    49   1
    52    23    50   1
    53    24    51   1
    54    25    52   1
    55    26    53   1
    56    27    54   1
@<TRIPOS>SUBSTRUCTURE
     1  GSZ      1

