@<TRIPOS>MOLECULE
2j62_ligand_058
    54    56
SMALL
GAST_HUCK
****
This file was generated by PARSER (from files_GN.cpp)

@<TRIPOS>ATOM
      1 CAZ        28.5542   38.0495   21.5408 C.3         1 GSZ      -0.0456
      2 CAN        30.0369   38.1720   21.0869 C.3         1 GSZ       0.0432
      3 CBA        30.9495   37.0954   21.7250 C.3         1 GSZ      -0.0456
      4 CAL        30.5488   39.5113   21.3542 C.2         1 GSZ       0.1811
      5 OAM        30.8542   40.2163   20.4070 O.2         1 GSZ      -0.3966
      6 NAK        30.7479   39.8767   22.6165 N.am        1 GSZ      -0.2638
      7 CAC        31.1902   41.1423   23.1248 C.3         1 GSZ       0.1446
      8 CAB        30.0240   42.1688   23.1971 C.3         1 GSZ       0.1222
      9 OAG        30.2015   42.9669   24.3689 O.3         1 GSZ      -0.3842
     10 CAA        29.9119   43.0881   21.9457 C.3         1 GSZ       0.1176
     11 OAH        29.3938   42.3678   20.8352 O.3         1 GSZ      -0.3858
     12 CAF        31.2931   43.7397   21.5923 C.3         1 GSZ       0.1168
     13 CAI        31.5971   44.9960   22.4824 C.3         1 GSZ       0.0768
     14 OAJ        32.8180   44.9285   23.2146 O.3         1 GSZ      -0.3919
     15 NAE        32.3714   42.7723   21.6461 N.pl3       1 GSZ      -0.2497
     16 CAQ        33.5693   42.8341   21.0389 C.2         1 GSZ       0.0236
     17 CAD        32.3640   41.6588   22.3958 C.2         1 GSZ       0.1393
     18 NAO        33.5425   41.0179   22.2975 N.2         1 GSZ      -0.3317
     19 CAP        34.3048   41.7389   21.4687 C.2         1 GSZ      -0.0178
     20 CAR        35.6994   41.3763   21.1460 C.3         1 GSZ      -0.0191
     21 CAS        36.6738   41.6007   22.3315 C.3         1 GSZ      -0.0133
     22 CAT        37.0420   43.0325   22.5474 C.ar        1 GSZ      -0.0416
     23 CAU        36.1117   43.9629   23.0376 C.ar        1 GSZ      -0.0602
     24 CAV        36.4775   45.3100   23.2593 C.ar        1 GSZ      -0.0686
     25 CAW        37.7866   45.7319   22.9792 C.ar        1 GSZ      -0.0687
     26 CAX        38.7282   44.8183   22.4901 C.ar        1 GSZ      -0.0686
     27 CAY        38.3638   43.4776   22.2719 C.ar        1 GSZ      -0.0602
     28 H1         28.1460   37.0838   21.2390 H           1 GSZ       0.0257
     29 H2         27.9437   38.8318   21.0868 H           1 GSZ       0.0257
     30 H3         28.4813   38.1354   22.6254 H           1 GSZ       0.0257
     31 H4         30.0583   38.0069   20.0000 H           1 GSZ       0.0532
     32 H5         32.0008   37.3047   21.5228 H           1 GSZ       0.0257
     33 H6         30.7103   36.1216   21.3050 H           1 GSZ       0.0257
     34 H7         30.8238   37.0623   22.8071 H           1 GSZ       0.0257
     35 H8         30.5304   39.2156   23.2916 H           1 GSZ       0.1888
     36 H9         31.5192   40.9360   24.1431 H           1 GSZ       0.0820
     37 H10        29.0742   41.6388   23.3374 H           1 GSZ       0.0672
     38 H11        29.3073   43.3223   24.5594 H           1 GSZ       0.2103
     39 H12        29.1791   43.8646   22.1413 H           1 GSZ       0.0654
     40 H13        28.4919   42.1010   21.0898 H           1 GSZ       0.2100
     41 H14        31.2265   44.0768   20.5549 H           1 GSZ       0.0699
     42 H15        30.8048   45.1900   23.2117 H           1 GSZ       0.0589
     43 H16        31.6583   45.8835   21.8503 H           1 GSZ       0.0589
     44 H17        32.7326   44.1484   23.8038 H           1 GSZ       0.2095
     45 H18        33.8969   43.5735   20.4124 H           1 GSZ       0.0663
     46 H19        36.0419   41.9241   20.2629 H           1 GSZ       0.0392
     47 H20        35.7019   40.3161   20.8918 H           1 GSZ       0.0392
     48 H21        37.5680   41.0040   22.1360 H           1 GSZ       0.0442
     49 H22        36.2464   41.2036   23.2618 H           1 GSZ       0.0442
     50 H23        35.1563   43.6743   23.2645 H           1 GSZ       0.0557
     51 H24        35.7950   45.9690   23.6384 H           1 GSZ       0.0599
     52 H25        38.0435   46.7129   23.1326 H           1 GSZ       0.0559
     53 H26        39.6821   45.1197   22.2738 H           1 GSZ       0.0599
     54 H27        39.0511   42.8293   21.9041 H           1 GSZ       0.0557
@<TRIPOS>BOND
     1     1     2   1
     2     2     3   1
     3     2     4   1
     4     4     5   2
     5     4     6  am
     6     6     7   1
     7     7     8   1
     8     7    17   1
     9     8     9   1
    10     8    10   1
    11    10    11   1
    12    10    12   1
    13    12    13   1
    14    12    15   1
    15    13    14   1
    16    15    16   1
    17    15    17   1
    18    16    19   2
    19    17    18   2
    20    18    19   1
    21    19    20   1
    22    20    21   1
    23    21    22   1
    24    22    23  ar
    25    22    27  ar
    26    23    24  ar
    27    24    25  ar
    28    25    26  ar
    29    26    27  ar
    30     1    28   1
    31     1    29   1
    32     1    30   1
    33     2    31   1
    34     3    32   1
    35     3    33   1
    36     3    34   1
    37     6    35   1
    38     7    36   1
    39     8    37   1
    40     9    38   1
    41    10    39   1
    42    11    40   1
    43    12    41   1
    44    13    42   1
    45    13    43   1
    46    14    44   1
    47    16    45   1
    48    20    46   1
    49    20    47   1
    50    21    48   1
    51    21    49   1
    52    23    50   1
    53    24    51   1
    54    25    52   1
    55    26    53   1
    56    27    54   1
@<TRIPOS>SUBSTRUCTURE
     1  GSZ      1

