@<TRIPOS>MOLECULE
2j62_ligand_021
    54    56
SMALL
GAST_HUCK
****
This file was generated by PARSER (from files_GN.cpp)

@<TRIPOS>ATOM
      1 CAZ        38.3523   32.6687    9.9699 C.3         1 GSZ      -0.0456
      2 CAN        38.5308   34.1508    9.5384 C.3         1 GSZ       0.0432
      3 CBA        40.0213   34.4822    9.2641 C.3         1 GSZ      -0.0456
      4 CAL        37.9747   35.0986   10.5087 C.2         1 GSZ       0.1811
      5 OAM        38.1605   34.9092   11.7023 O.2         1 GSZ      -0.3966
      6 NAK        37.3168   36.1765   10.0826 N.am        1 GSZ      -0.2638
      7 CAC        36.7460   37.2786   10.8136 C.3         1 GSZ       0.1446
      8 CAB        37.7180   38.4959   10.9395 C.3         1 GSZ       0.1222
      9 OAG        37.0008   39.7342   10.8797 O.3         1 GSZ      -0.3842
     10 CAA        38.5321   38.4984   12.2703 C.3         1 GSZ       0.1176
     11 OAH        39.4420   37.3982   12.3198 O.3         1 GSZ      -0.3858
     12 CAF        37.5883   38.4201   13.5135 C.3         1 GSZ       0.1168
     13 CAI        36.9721   39.8011   13.9035 C.3         1 GSZ       0.0768
     14 OAJ        36.8916   39.9683   15.3121 O.3         1 GSZ      -0.3919
     15 NAE        36.5445   37.4305   13.3118 N.pl3       1 GSZ      -0.2497
     16 CAQ        35.7638   36.8627   14.2499 C.2         1 GSZ       0.0236
     17 CAD        36.1685   36.9127   12.1210 C.2         1 GSZ       0.1393
     18 NAO        35.1924   36.0107   12.2962 N.2         1 GSZ      -0.3317
     19 CAP        34.9090   35.9628   13.6085 C.2         1 GSZ      -0.0178
     20 CAR        33.8885   35.0337   14.1543 C.3         1 GSZ      -0.0191
     21 CAS        33.5550   35.2483   15.6573 C.3         1 GSZ      -0.0133
     22 CAT        32.9019   34.1066   16.3471 C.ar        1 GSZ      -0.0416
     23 CAU        33.4997   32.8223   16.3169 C.ar        1 GSZ      -0.0602
     24 CAV        32.9684   31.7591   17.0739 C.ar        1 GSZ      -0.0686
     25 CAW        31.8489   31.9680   17.8949 C.ar        1 GSZ      -0.0687
     26 CAX        31.2589   33.2399   17.9482 C.ar        1 GSZ      -0.0686
     27 CAY        31.7724   34.3030   17.1772 C.ar        1 GSZ      -0.0602
     28 H1         38.6781   31.9994    9.1718 H           1 GSZ       0.0257
     29 H2         37.3015   32.4556   10.1833 H           1 GSZ       0.0257
     30 H3         38.9414   32.4477   10.8647 H           1 GSZ       0.0257
     31 H4         37.9993   34.2627    8.5922 H           1 GSZ       0.0532
     32 H5         40.1152   35.4873    8.8440 H           1 GSZ       0.0257
     33 H6         40.4435   33.7745    8.5484 H           1 GSZ       0.0257
     34 H7         40.6101   34.4369   10.1845 H           1 GSZ       0.0257
     35 H8         37.1965   36.2241    9.1178 H           1 GSZ       0.1888
     36 H9         35.9124   37.5877   10.1973 H           1 GSZ       0.0820
     37 H10        38.4053   38.5031   10.0858 H           1 GSZ       0.0672
     38 H11        36.1230   39.5369   10.4887 H           1 GSZ       0.2103
     39 H12        39.1528   39.3933   12.3193 H           1 GSZ       0.0654
     40 H13        39.6923   37.1930   11.3831 H           1 GSZ       0.2100
     41 H14        38.2094   38.0815   14.3490 H           1 GSZ       0.0699
     42 H15        35.9657   39.9127   13.4826 H           1 GSZ       0.0589
     43 H16        37.5788   40.6288   13.5257 H           1 GSZ       0.0589
     44 H17        37.8242   40.0955   15.5876 H           1 GSZ       0.2095
     45 H18        35.8129   37.0483   15.2473 H           1 GSZ       0.0663
     46 H19        34.2648   34.0202   13.9802 H           1 GSZ       0.0392
     47 H20        32.9630   35.1491   13.5745 H           1 GSZ       0.0392
     48 H21        32.9433   36.1587   15.7276 H           1 GSZ       0.0442
     49 H22        34.4780   35.4456   16.2067 H           1 GSZ       0.0442
     50 H23        34.3470   32.6477   15.7568 H           1 GSZ       0.0557
     51 H24        33.4129   30.8382   17.0258 H           1 GSZ       0.0599
     52 H25        31.4784   31.2036   18.4427 H           1 GSZ       0.0559
     53 H26        30.4594   33.4024   18.5673 H           1 GSZ       0.0599
     54 H27        31.3370   35.2318   17.2551 H           1 GSZ       0.0557
@<TRIPOS>BOND
     1     1     2   1
     2     2     3   1
     3     2     4   1
     4     4     5   2
     5     4     6  am
     6     6     7   1
     7     7     8   1
     8     7    17   1
     9     8     9   1
    10     8    10   1
    11    10    11   1
    12    10    12   1
    13    12    13   1
    14    12    15   1
    15    13    14   1
    16    15    16   1
    17    15    17   1
    18    16    19   2
    19    17    18   2
    20    18    19   1
    21    19    20   1
    22    20    21   1
    23    21    22   1
    24    22    23  ar
    25    22    27  ar
    26    23    24  ar
    27    24    25  ar
    28    25    26  ar
    29    26    27  ar
    30     1    28   1
    31     1    29   1
    32     1    30   1
    33     2    31   1
    34     3    32   1
    35     3    33   1
    36     3    34   1
    37     6    35   1
    38     7    36   1
    39     8    37   1
    40     9    38   1
    41    10    39   1
    42    11    40   1
    43    12    41   1
    44    13    42   1
    45    13    43   1
    46    14    44   1
    47    16    45   1
    48    20    46   1
    49    20    47   1
    50    21    48   1
    51    21    49   1
    52    23    50   1
    53    24    51   1
    54    25    52   1
    55    26    53   1
    56    27    54   1
@<TRIPOS>SUBSTRUCTURE
     1  GSZ      1

