@<TRIPOS>MOLECULE
2j62_ligand_028
    54    56
SMALL
GAST_HUCK
****
This file was generated by PARSER (from files_GN.cpp)

@<TRIPOS>ATOM
      1 CAZ        31.4715   41.0664   16.8814 C.3         1 GSZ      -0.0456
      2 CAN        31.6739   39.9022   15.8730 C.3         1 GSZ       0.0432
      3 CBA        31.6364   38.5160   16.5789 C.3         1 GSZ      -0.0456
      4 CAL        32.8968   40.0849   15.0810 C.2         1 GSZ       0.1811
      5 OAM        32.8139   40.5526   13.9504 O.2         1 GSZ      -0.3966
      6 NAK        34.0765   39.7175   15.5694 N.am        1 GSZ      -0.2638
      7 CAC        35.3976   39.9015   15.0198 C.3         1 GSZ       0.1446
      8 CAB        35.8052   41.3985   14.8190 C.3         1 GSZ       0.1222
      9 OAG        37.0734   41.6529   15.4297 O.3         1 GSZ      -0.3842
     10 CAA        35.8379   41.9202   13.3416 C.3         1 GSZ       0.1176
     11 OAH        34.5174   42.2930   12.9420 O.3         1 GSZ      -0.3858
     12 CAF        36.4265   40.8978   12.3092 C.3         1 GSZ       0.1168
     13 CAI        37.9608   41.0776   12.0956 C.3         1 GSZ       0.0768
     14 OAJ        38.2435   42.1337   11.1779 O.3         1 GSZ      -0.3919
     15 NAE        36.1069   39.5315   12.6444 N.pl3       1 GSZ      -0.2497
     16 CAQ        36.2209   38.4670   11.8306 C.2         1 GSZ       0.0236
     17 CAD        35.6533   39.0724   13.8269 C.2         1 GSZ       0.1393
     18 NAO        35.5026   37.7371   13.7791 N.2         1 GSZ      -0.3317
     19 CAP        35.8470   37.3389   12.5472 C.2         1 GSZ      -0.0178
     20 CAR        35.7970   35.9450   12.0604 C.3         1 GSZ      -0.0191
     21 CAS        36.9835   35.0608   12.5440 C.3         1 GSZ      -0.0133
     22 CAT        37.9234   34.6742   11.4528 C.ar        1 GSZ      -0.0416
     23 CAU        37.8429   33.3978   10.8473 C.ar        1 GSZ      -0.0602
     24 CAV        38.7296   33.0323    9.8128 C.ar        1 GSZ      -0.0686
     25 CAW        39.7147   33.9353    9.3815 C.ar        1 GSZ      -0.0687
     26 CAX        39.8101   35.2069    9.9731 C.ar        1 GSZ      -0.0686
     27 CAY        38.9178   35.5755   11.0021 C.ar        1 GSZ      -0.0602
     28 H1         30.5345   40.9364   17.4251 H           1 GSZ       0.0257
     29 H2         31.4246   42.0225   16.3554 H           1 GSZ       0.0257
     30 H3         32.2879   41.1077   17.6045 H           1 GSZ       0.0257
     31 H4         30.8028   39.9270   15.2022 H           1 GSZ       0.0532
     32 H5         31.8458   37.7199   15.8644 H           1 GSZ       0.0257
     33 H6         30.6498   38.3365   17.0074 H           1 GSZ       0.0257
     34 H7         32.3756   38.4661   17.3801 H           1 GSZ       0.0257
     35 H8         34.0444   39.2584   16.4234 H           1 GSZ       0.1888
     36 H9         36.0524   39.4917   15.7930 H           1 GSZ       0.0820
     37 H10        35.1089   42.0309   15.3780 H           1 GSZ       0.0672
     38 H11        37.7001   40.9707   15.1015 H           1 GSZ       0.2103
     39 H12        36.4082   42.8514   13.3155 H           1 GSZ       0.0654
     40 H13        33.9835   41.4660   13.0120 H           1 GSZ       0.2100
     41 H14        35.9498   41.0966   11.3418 H           1 GSZ       0.0699
     42 H15        38.4077   40.1746   11.6773 H           1 GSZ       0.0589
     43 H16        38.4616   41.2862   13.0416 H           1 GSZ       0.0589
     44 H17        37.8967   42.9548   11.5869 H           1 GSZ       0.2095
     45 H18        36.5360   38.4790   10.8569 H           1 GSZ       0.0663
     46 H19        35.7450   35.9475   10.9686 H           1 GSZ       0.0392
     47 H20        34.8604   35.5154   12.4224 H           1 GSZ       0.0392
     48 H21        36.5688   34.1620   13.0090 H           1 GSZ       0.0442
     49 H22        37.5437   35.5687   13.3303 H           1 GSZ       0.0442
     50 H23        37.1342   32.7243   11.1454 H           1 GSZ       0.0557
     51 H24        38.6490   32.1130    9.3767 H           1 GSZ       0.0599
     52 H25        40.3599   33.6669    8.6355 H           1 GSZ       0.0559
     53 H26        40.5255   35.8645    9.6585 H           1 GSZ       0.0599
     54 H27        39.0057   36.5036   11.4231 H           1 GSZ       0.0557
@<TRIPOS>BOND
     1     1     2   1
     2     2     3   1
     3     2     4   1
     4     4     5   2
     5     4     6  am
     6     6     7   1
     7     7     8   1
     8     7    17   1
     9     8     9   1
    10     8    10   1
    11    10    11   1
    12    10    12   1
    13    12    13   1
    14    12    15   1
    15    13    14   1
    16    15    16   1
    17    15    17   1
    18    16    19   2
    19    17    18   2
    20    18    19   1
    21    19    20   1
    22    20    21   1
    23    21    22   1
    24    22    23  ar
    25    22    27  ar
    26    23    24  ar
    27    24    25  ar
    28    25    26  ar
    29    26    27  ar
    30     1    28   1
    31     1    29   1
    32     1    30   1
    33     2    31   1
    34     3    32   1
    35     3    33   1
    36     3    34   1
    37     6    35   1
    38     7    36   1
    39     8    37   1
    40     9    38   1
    41    10    39   1
    42    11    40   1
    43    12    41   1
    44    13    42   1
    45    13    43   1
    46    14    44   1
    47    16    45   1
    48    20    46   1
    49    20    47   1
    50    21    48   1
    51    21    49   1
    52    23    50   1
    53    24    51   1
    54    25    52   1
    55    26    53   1
    56    27    54   1
@<TRIPOS>SUBSTRUCTURE
     1  GSZ      1

