@<TRIPOS>MOLECULE
2j62_ligand_017
    54    56
SMALL
GAST_HUCK
****
This file was generated by PARSER (from files_GN.cpp)

@<TRIPOS>ATOM
      1 CAZ        33.9445   41.2987   14.6627 C.3         1 GSZ      -0.0456
      2 CAN        35.4339   41.2860   14.2130 C.3         1 GSZ       0.0432
      3 CBA        35.7669   42.4777   13.2778 C.3         1 GSZ      -0.0456
      4 CAL        35.8102   40.0460   13.5437 C.2         1 GSZ       0.1811
      5 OAM        35.0326   39.5515   12.7363 O.2         1 GSZ      -0.3966
      6 NAK        37.0273   39.5319   13.7220 N.am        1 GSZ      -0.2638
      7 CAC        37.5709   38.3620   13.0808 C.3         1 GSZ       0.1446
      8 CAB        37.8087   38.5838   11.5514 C.3         1 GSZ       0.1222
      9 OAG        38.8584   39.5269   11.3380 O.3         1 GSZ      -0.3842
     10 CAA        38.1450   37.2493   10.8291 C.3         1 GSZ       0.1176
     11 OAH        38.3560   37.5028    9.4382 O.3         1 GSZ      -0.3858
     12 CAF        37.0109   36.1857   11.0325 C.3         1 GSZ       0.1168
     13 CAI        37.5026   34.7584   10.6464 C.3         1 GSZ       0.0768
     14 OAJ        38.0296   34.7032    9.3243 O.3         1 GSZ      -0.3919
     15 NAE        36.4725   36.2223   12.3752 N.pl3       1 GSZ      -0.2497
     16 CAQ        35.5253   35.4169   12.8869 C.2         1 GSZ       0.0236
     17 CAD        36.7277   37.1606   13.3151 C.2         1 GSZ       0.1393
     18 NAO        35.9782   36.9353   14.4133 N.2         1 GSZ      -0.3317
     19 CAP        35.2162   35.8579   14.1669 C.2         1 GSZ      -0.0178
     20 CAR        34.2255   35.2438   15.0761 C.3         1 GSZ      -0.0191
     21 CAS        32.7549   35.2803   14.5516 C.3         1 GSZ      -0.0133
     22 CAT        31.9404   34.1266   15.0356 C.ar        1 GSZ      -0.0416
     23 CAU        31.4259   33.1640   14.1331 C.ar        1 GSZ      -0.0602
     24 CAV        30.6784   32.0654   14.6004 C.ar        1 GSZ      -0.0686
     25 CAW        30.4369   31.9122   15.9766 C.ar        1 GSZ      -0.0687
     26 CAX        30.9421   32.8575   16.8859 C.ar        1 GSZ      -0.0686
     27 CAY        31.6843   33.9593   16.4179 C.ar        1 GSZ      -0.0602
     28 H1         33.7226   42.2142   15.2133 H           1 GSZ       0.0257
     29 H2         33.7332   40.4464   15.3131 H           1 GSZ       0.0257
     30 H3         33.2787   41.2493   13.7986 H           1 GSZ       0.0257
     31 H4         36.0346   41.4001   15.1230 H           1 GSZ       0.0532
     32 H5         36.8338   42.4869   13.0383 H           1 GSZ       0.0257
     33 H6         35.5242   43.4210   13.7635 H           1 GSZ       0.0257
     34 H7         35.1965   42.4095   12.3480 H           1 GSZ       0.0257
     35 H8         37.6142   39.9898   14.3505 H           1 GSZ       0.1888
     36 H9         38.5442   38.1707   13.5433 H           1 GSZ       0.0820
     37 H10        36.9084   38.9924   11.0860 H           1 GSZ       0.0672
     38 H11        38.5267   40.3776   11.6961 H           1 GSZ       0.2103
     39 H12        39.0847   36.8656   11.2396 H           1 GSZ       0.0654
     40 H13        37.5125   37.8809    9.1091 H           1 GSZ       0.2100
     41 H14        36.1827   36.4437   10.3625 H           1 GSZ       0.0699
     42 H15        36.6761   34.0477   10.6927 H           1 GSZ       0.0589
     43 H16        38.2761   34.4283   11.3423 H           1 GSZ       0.0589
     44 H17        37.2938   34.9864    8.7405 H           1 GSZ       0.2095
     45 H18        35.0811   34.6278   12.4158 H           1 GSZ       0.0663
     46 H19        34.2678   35.7617   16.0361 H           1 GSZ       0.0392
     47 H20        34.5389   34.2102   15.2470 H           1 GSZ       0.0392
     48 H21        32.7487   35.3072   13.4575 H           1 GSZ       0.0442
     49 H22        32.2744   36.2051   14.8829 H           1 GSZ       0.0442
     50 H23        31.5971   33.2508   13.1281 H           1 GSZ       0.0557
     51 H24        30.3167   31.3751   13.9388 H           1 GSZ       0.0599
     52 H25        29.8959   31.1129   16.3158 H           1 GSZ       0.0559
     53 H26        30.7756   32.7419   17.8879 H           1 GSZ       0.0599
     54 H27        32.0446   34.6348   17.0959 H           1 GSZ       0.0557
@<TRIPOS>BOND
     1     1     2   1
     2     2     3   1
     3     2     4   1
     4     4     5   2
     5     4     6  am
     6     6     7   1
     7     7     8   1
     8     7    17   1
     9     8     9   1
    10     8    10   1
    11    10    11   1
    12    10    12   1
    13    12    13   1
    14    12    15   1
    15    13    14   1
    16    15    16   1
    17    15    17   1
    18    16    19   2
    19    17    18   2
    20    18    19   1
    21    19    20   1
    22    20    21   1
    23    21    22   1
    24    22    23  ar
    25    22    27  ar
    26    23    24  ar
    27    24    25  ar
    28    25    26  ar
    29    26    27  ar
    30     1    28   1
    31     1    29   1
    32     1    30   1
    33     2    31   1
    34     3    32   1
    35     3    33   1
    36     3    34   1
    37     6    35   1
    38     7    36   1
    39     8    37   1
    40     9    38   1
    41    10    39   1
    42    11    40   1
    43    12    41   1
    44    13    42   1
    45    13    43   1
    46    14    44   1
    47    16    45   1
    48    20    46   1
    49    20    47   1
    50    21    48   1
    51    21    49   1
    52    23    50   1
    53    24    51   1
    54    25    52   1
    55    26    53   1
    56    27    54   1
@<TRIPOS>SUBSTRUCTURE
     1  GSZ      1

