@<TRIPOS>MOLECULE
2j62_ligand_054
    54    56
SMALL
GAST_HUCK
****
This file was generated by PARSER (from files_GN.cpp)

@<TRIPOS>ATOM
      1 CAZ        28.6452   46.4698   14.7829 C.3         1 GSZ      -0.0456
      2 CAN        29.5359   46.5456   16.0523 C.3         1 GSZ       0.0432
      3 CBA        30.3209   47.8853   16.0530 C.3         1 GSZ      -0.0456
      4 CAL        30.3735   45.3522   16.1817 C.2         1 GSZ       0.1811
      5 OAM        31.5349   45.3892   15.7991 O.2         1 GSZ      -0.3966
      6 NAK        29.8580   44.2288   16.6711 N.am        1 GSZ      -0.2638
      7 CAC        30.5092   42.9474   16.7749 C.3         1 GSZ       0.1446
      8 CAB        29.6917   41.8623   16.0123 C.3         1 GSZ       0.1222
      9 OAG        29.6723   42.1587   14.6205 O.3         1 GSZ      -0.3842
     10 CAA        30.2973   40.4532   16.2538 C.3         1 GSZ       0.1176
     11 OAH        29.5769   39.4736   15.5010 O.3         1 GSZ      -0.3858
     12 CAF        30.2930   40.1047   17.7816 C.3         1 GSZ       0.1168
     13 CAI        31.1408   38.8238   18.0676 C.3         1 GSZ       0.0768
     14 OAJ        32.4439   38.7940   17.4970 O.3         1 GSZ      -0.3919
     15 NAE        30.6202   41.2460   18.6101 N.pl3       1 GSZ      -0.2497
     16 CAQ        30.7295   41.2774   19.9526 C.2         1 GSZ       0.0236
     17 CAD        30.6640   42.5309   18.1851 C.2         1 GSZ       0.1393
     18 NAO        30.8082   43.3581   19.2374 N.2         1 GSZ      -0.3317
     19 CAP        30.8799   42.6020   20.3447 C.2         1 GSZ      -0.0178
     20 CAR        31.0430   43.1164   21.7215 C.3         1 GSZ      -0.0191
     21 CAS        32.3689   43.8996   21.9105 C.3         1 GSZ      -0.0133
     22 CAT        33.5680   43.0234   21.7897 C.ar        1 GSZ      -0.0416
     23 CAU        34.2935   42.9615   20.5771 C.ar        1 GSZ      -0.0602
     24 CAV        35.4083   42.1129   20.4470 C.ar        1 GSZ      -0.0686
     25 CAW        35.8101   41.3103   21.5296 C.ar        1 GSZ      -0.0687
     26 CAX        35.0984   41.3644   22.7408 C.ar        1 GSZ      -0.0686
     27 CAY        33.9814   42.2089   22.8686 C.ar        1 GSZ      -0.0602
     28 H1         27.9606   47.3157   14.7463 H           1 GSZ       0.0257
     29 H2         28.0569   45.5527   14.7685 H           1 GSZ       0.0257
     30 H3         29.2460   46.5091   13.8785 H           1 GSZ       0.0257
     31 H4         28.8802   46.5778   16.9249 H           1 GSZ       0.0532
     32 H5         30.9394   47.9654   16.9458 H           1 GSZ       0.0257
     33 H6         29.6288   48.7284   16.0465 H           1 GSZ       0.0257
     34 H7         30.9654   47.9645   15.1763 H           1 GSZ       0.0257
     35 H8         28.9354   44.2686   16.9881 H           1 GSZ       0.1888
     36 H9         31.5209   42.9650   16.3450 H           1 GSZ       0.0820
     37 H10        28.6551   41.8641   16.3638 H           1 GSZ       0.0672
     38 H11        29.0964   41.4759   14.2146 H           1 GSZ       0.2103
     39 H12        31.3223   40.4819   15.8739 H           1 GSZ       0.0654
     40 H13        30.2577   38.9467   15.0272 H           1 GSZ       0.2100
     41 H14        29.2605   39.8489   18.0470 H           1 GSZ       0.0699
     42 H15        30.6145   37.9611   17.6634 H           1 GSZ       0.0589
     43 H16        31.2420   38.6474   19.1360 H           1 GSZ       0.0589
     44 H17        33.0334   39.3028   18.0926 H           1 GSZ       0.2095
     45 H18        30.6790   40.4803   20.5909 H           1 GSZ       0.0663
     46 H19        31.0011   42.2884   22.4359 H           1 GSZ       0.0392
     47 H20        30.2014   43.7759   21.9475 H           1 GSZ       0.0392
     48 H21        32.3665   44.3720   22.8954 H           1 GSZ       0.0442
     49 H22        32.4098   44.7155   21.1827 H           1 GSZ       0.0442
     50 H23        34.0156   43.5328   19.7791 H           1 GSZ       0.0557
     51 H24        35.9197   42.0786   19.5647 H           1 GSZ       0.0599
     52 H25        36.6180   40.6929   21.4336 H           1 GSZ       0.0559
     53 H26        35.3904   40.7787   23.5257 H           1 GSZ       0.0599
     54 H27        33.4697   42.2277   23.7566 H           1 GSZ       0.0557
@<TRIPOS>BOND
     1     1     2   1
     2     2     3   1
     3     2     4   1
     4     4     5   2
     5     4     6  am
     6     6     7   1
     7     7     8   1
     8     7    17   1
     9     8     9   1
    10     8    10   1
    11    10    11   1
    12    10    12   1
    13    12    13   1
    14    12    15   1
    15    13    14   1
    16    15    16   1
    17    15    17   1
    18    16    19   2
    19    17    18   2
    20    18    19   1
    21    19    20   1
    22    20    21   1
    23    21    22   1
    24    22    23  ar
    25    22    27  ar
    26    23    24  ar
    27    24    25  ar
    28    25    26  ar
    29    26    27  ar
    30     1    28   1
    31     1    29   1
    32     1    30   1
    33     2    31   1
    34     3    32   1
    35     3    33   1
    36     3    34   1
    37     6    35   1
    38     7    36   1
    39     8    37   1
    40     9    38   1
    41    10    39   1
    42    11    40   1
    43    12    41   1
    44    13    42   1
    45    13    43   1
    46    14    44   1
    47    16    45   1
    48    20    46   1
    49    20    47   1
    50    21    48   1
    51    21    49   1
    52    23    50   1
    53    24    51   1
    54    25    52   1
    55    26    53   1
    56    27    54   1
@<TRIPOS>SUBSTRUCTURE
     1  GSZ      1

