@<TRIPOS>MOLECULE
2j62_ligand_041
    54    56
SMALL
GAST_HUCK
****
This file was generated by PARSER (from files_GN.cpp)

@<TRIPOS>ATOM
      1 CAZ        29.4307   44.0325   17.1408 C.3         1 GSZ      -0.0456
      2 CAN        29.3585   42.6046   16.5229 C.3         1 GSZ       0.0432
      3 CBA        28.2145   42.5648   15.4639 C.3         1 GSZ      -0.0456
      4 CAL        29.2778   41.5439   17.5332 C.2         1 GSZ       0.1811
      5 OAM        28.4147   40.6683   17.4249 O.2         1 GSZ      -0.3966
      6 NAK        30.1334   41.4918   18.5453 N.am        1 GSZ      -0.2638
      7 CAC        30.2252   40.4702   19.5588 C.3         1 GSZ       0.1446
      8 CAB        28.8834   40.2244   20.3335 C.3         1 GSZ       0.1222
      9 OAG        28.7928   38.8579   20.7400 O.3         1 GSZ      -0.3842
     10 CAA        28.7133   41.1598   21.5634 C.3         1 GSZ       0.1176
     11 OAH        28.5894   42.5090   21.1045 O.3         1 GSZ      -0.3858
     12 CAF        29.9179   41.0556   22.5557 C.3         1 GSZ       0.1168
     13 CAI        29.8850   39.8295   23.5209 C.3         1 GSZ       0.0768
     14 OAJ        28.5710   39.3596   23.8051 O.3         1 GSZ      -0.3919
     15 NAE        31.1615   41.0756   21.8248 N.pl3       1 GSZ      -0.2497
     16 CAQ        32.3814   41.3300   22.3348 C.2         1 GSZ       0.0236
     17 CAD        31.3203   40.8113   20.5083 C.2         1 GSZ       0.1393
     18 NAO        32.6239   40.9080   20.1905 N.2         1 GSZ      -0.3317
     19 CAP        33.3097   41.2189   21.3053 C.2         1 GSZ      -0.0178
     20 CAR        34.7854   41.3719   21.3201 C.3         1 GSZ      -0.0191
     21 CAS        35.5018   41.6048   22.6926 C.3         1 GSZ      -0.0133
     22 CAT        36.2521   42.8930   22.7711 C.ar        1 GSZ      -0.0416
     23 CAU        35.5957   44.0827   23.1713 C.ar        1 GSZ      -0.0602
     24 CAV        36.3265   45.2779   23.3414 C.ar        1 GSZ      -0.0686
     25 CAW        37.6972   45.3152   23.0541 C.ar        1 GSZ      -0.0687
     26 CAX        38.3507   44.1536   22.6048 C.ar        1 GSZ      -0.0686
     27 CAY        37.6325   42.9493   22.4762 C.ar        1 GSZ      -0.0602
     28 H1         29.5482   44.7739   16.3463 H           1 GSZ       0.0257
     29 H2         30.2896   44.1252   17.8057 H           1 GSZ       0.0257
     30 H3         28.5234   44.2654   17.7030 H           1 GSZ       0.0257
     31 H4         30.2955   42.4498   15.9770 H           1 GSZ       0.0532
     32 H5         28.1756   41.5896   14.9743 H           1 GSZ       0.0257
     33 H6         28.3811   43.3198   14.6945 H           1 GSZ       0.0257
     34 H7         27.2447   42.7574   15.9328 H           1 GSZ       0.0257
     35 H8         30.8079   42.1926   18.5781 H           1 GSZ       0.1888
     36 H9         30.5084   39.5354   19.0602 H           1 GSZ       0.0820
     37 H10        28.0241   40.3810   19.6792 H           1 GSZ       0.0672
     38 H11        29.6861   38.6216   21.0626 H           1 GSZ       0.2103
     39 H12        27.7728   40.9140   22.0608 H           1 GSZ       0.0654
     40 H13        28.4426   43.0382   21.9178 H           1 GSZ       0.2100
     41 H14        29.8762   41.9476   23.1910 H           1 GSZ       0.0699
     42 H15        30.3409   40.1116   24.4709 H           1 GSZ       0.0589
     43 H16        30.4590   38.9902   23.1209 H           1 GSZ       0.0589
     44 H17        28.0099   40.1631   23.8082 H           1 GSZ       0.2095
     45 H18        32.5807   41.5635   23.3102 H           1 GSZ       0.0663
     46 H19        35.0300   42.1736   20.6133 H           1 GSZ       0.0392
     47 H20        35.1902   40.4509   20.8906 H           1 GSZ       0.0392
     48 H21        36.1976   40.7800   22.8724 H           1 GSZ       0.0442
     49 H22        34.7870   41.5592   23.5205 H           1 GSZ       0.0442
     50 H23        34.5931   44.0823   23.3713 H           1 GSZ       0.0557
     51 H24        35.8541   46.1199   23.6839 H           1 GSZ       0.0599
     52 H25        38.2189   46.1875   23.1632 H           1 GSZ       0.0559
     53 H26        39.3430   44.1924   22.3784 H           1 GSZ       0.0599
     54 H27        38.1288   42.1107   22.1648 H           1 GSZ       0.0557
@<TRIPOS>BOND
     1     1     2   1
     2     2     3   1
     3     2     4   1
     4     4     5   2
     5     4     6  am
     6     6     7   1
     7     7     8   1
     8     7    17   1
     9     8     9   1
    10     8    10   1
    11    10    11   1
    12    10    12   1
    13    12    13   1
    14    12    15   1
    15    13    14   1
    16    15    16   1
    17    15    17   1
    18    16    19   2
    19    17    18   2
    20    18    19   1
    21    19    20   1
    22    20    21   1
    23    21    22   1
    24    22    23  ar
    25    22    27  ar
    26    23    24  ar
    27    24    25  ar
    28    25    26  ar
    29    26    27  ar
    30     1    28   1
    31     1    29   1
    32     1    30   1
    33     2    31   1
    34     3    32   1
    35     3    33   1
    36     3    34   1
    37     6    35   1
    38     7    36   1
    39     8    37   1
    40     9    38   1
    41    10    39   1
    42    11    40   1
    43    12    41   1
    44    13    42   1
    45    13    43   1
    46    14    44   1
    47    16    45   1
    48    20    46   1
    49    20    47   1
    50    21    48   1
    51    21    49   1
    52    23    50   1
    53    24    51   1
    54    25    52   1
    55    26    53   1
    56    27    54   1
@<TRIPOS>SUBSTRUCTURE
     1  GSZ      1

