@<TRIPOS>MOLECULE
2j62_ligand_001
    54    56
SMALL
GAST_HUCK
****
This file was generated by PARSER (from files_GN.cpp)

@<TRIPOS>ATOM
      1 CAZ        31.3796   31.7488   18.1575 C.3         1 GSZ      -0.0456
      2 CAN        30.9009   32.5770   16.9242 C.3         1 GSZ       0.0432
      3 CBA        30.4161   31.5951   15.8078 C.3         1 GSZ      -0.0456
      4 CAL        31.8866   33.5570   16.4432 C.2         1 GSZ       0.1811
      5 OAM        32.8728   33.8215   17.1301 O.2         1 GSZ      -0.3966
      6 NAK        31.6847   34.2329   15.3187 N.am        1 GSZ      -0.2638
      7 CAC        32.5184   35.2434   14.7199 C.3         1 GSZ       0.1446
      8 CAB        33.9926   34.7725   14.5197 C.3         1 GSZ       0.1222
      9 OAG        34.0294   33.7026   13.5680 O.3         1 GSZ      -0.3842
     10 CAA        34.9058   35.9315   14.0441 C.3         1 GSZ       0.1176
     11 OAH        36.2447   35.4382   13.9452 O.3         1 GSZ      -0.3858
     12 CAF        34.8376   37.1782   14.9940 C.3         1 GSZ       0.1168
     13 CAI        35.3868   38.4424   14.2568 C.3         1 GSZ       0.0768
     14 OAJ        36.6383   38.2068   13.6163 O.3         1 GSZ      -0.3919
     15 NAE        33.5004   37.3931   15.5191 N.pl3       1 GSZ      -0.2497
     16 CAQ        33.0481   38.4776   16.1763 C.2         1 GSZ       0.0236
     17 CAD        32.4603   36.5372   15.4310 C.2         1 GSZ       0.1393
     18 NAO        31.3450   37.0964   15.9395 N.2         1 GSZ      -0.3317
     19 CAP        31.6943   38.2975   16.4189 C.2         1 GSZ      -0.0178
     20 CAR        30.7801   39.3337   16.9280 C.3         1 GSZ      -0.0191
     21 CAS        30.2611   40.2262   15.7627 C.3         1 GSZ      -0.0133
     22 CAT        29.7939   41.5617   16.2216 C.ar        1 GSZ      -0.0416
     23 CAU        30.6571   42.6827   16.1776 C.ar        1 GSZ      -0.0602
     24 CAV        30.2143   43.9494   16.6049 C.ar        1 GSZ      -0.0686
     25 CAW        28.8997   44.1099   17.0850 C.ar        1 GSZ      -0.0687
     26 CAX        28.0345   43.0066   17.1344 C.ar        1 GSZ      -0.0686
     27 CAY        28.4761   41.7383   16.7089 C.ar        1 GSZ      -0.0602
     28 H1         30.5910   31.0710   18.5001 H           1 GSZ       0.0257
     29 H2         31.6357   32.4132   18.9929 H           1 GSZ       0.0257
     30 H3         32.2633   31.1525   17.9012 H           1 GSZ       0.0257
     31 H4         30.0318   33.1614   17.2375 H           1 GSZ       0.0532
     32 H5         29.9477   32.1415   14.9850 H           1 GSZ       0.0257
     33 H6         29.6684   30.9061   16.2126 H           1 GSZ       0.0257
     34 H7         31.2595   31.0167   15.4168 H           1 GSZ       0.0257
     35 H8         30.8783   34.0318   14.8151 H           1 GSZ       0.1888
     36 H9         32.0952   35.4450   13.7327 H           1 GSZ       0.0820
     37 H10        34.4046   34.3980   15.4640 H           1 GSZ       0.0672
     38 H11        33.8270   34.1116   12.7052 H           1 GSZ       0.2103
     39 H12        34.5749   36.2231   13.0419 H           1 GSZ       0.0654
     40 H13        36.5037   35.2027   14.8684 H           1 GSZ       0.2100
     41 H14        35.4788   36.9955   15.8639 H           1 GSZ       0.0699
     42 H15        35.5414   39.2570   14.9711 H           1 GSZ       0.0589
     43 H16        34.6723   38.7738   13.5019 H           1 GSZ       0.0589
     44 H17        37.2432   37.9194   14.3406 H           1 GSZ       0.2095
     45 H18        33.5785   39.3247   16.3948 H           1 GSZ       0.0663
     46 H19        31.3136   39.9343   17.6745 H           1 GSZ       0.0392
     47 H20        29.9348   38.8563   17.4294 H           1 GSZ       0.0392
     48 H21        29.4490   39.6974   15.2540 H           1 GSZ       0.0442
     49 H22        31.0451   40.3710   15.0112 H           1 GSZ       0.0442
     50 H23        31.6136   42.5884   15.8319 H           1 GSZ       0.0557
     51 H24        30.8450   44.7532   16.5583 H           1 GSZ       0.0599
     52 H25        28.5818   45.0314   17.3914 H           1 GSZ       0.0559
     53 H26        27.0792   43.1235   17.4731 H           1 GSZ       0.0599
     54 H27        27.8298   40.9441   16.7486 H           1 GSZ       0.0557
@<TRIPOS>BOND
     1     1     2   1
     2     2     3   1
     3     2     4   1
     4     4     5   2
     5     4     6  am
     6     6     7   1
     7     7     8   1
     8     7    17   1
     9     8     9   1
    10     8    10   1
    11    10    11   1
    12    10    12   1
    13    12    13   1
    14    12    15   1
    15    13    14   1
    16    15    16   1
    17    15    17   1
    18    16    19   2
    19    17    18   2
    20    18    19   1
    21    19    20   1
    22    20    21   1
    23    21    22   1
    24    22    23  ar
    25    22    27  ar
    26    23    24  ar
    27    24    25  ar
    28    25    26  ar
    29    26    27  ar
    30     1    28   1
    31     1    29   1
    32     1    30   1
    33     2    31   1
    34     3    32   1
    35     3    33   1
    36     3    34   1
    37     6    35   1
    38     7    36   1
    39     8    37   1
    40     9    38   1
    41    10    39   1
    42    11    40   1
    43    12    41   1
    44    13    42   1
    45    13    43   1
    46    14    44   1
    47    16    45   1
    48    20    46   1
    49    20    47   1
    50    21    48   1
    51    21    49   1
    52    23    50   1
    53    24    51   1
    54    25    52   1
    55    26    53   1
    56    27    54   1
@<TRIPOS>SUBSTRUCTURE
     1  GSZ      1

