@<TRIPOS>MOLECULE
2j62_ligand_022
    54    56
SMALL
GAST_HUCK
****
This file was generated by PARSER (from files_GN.cpp)

@<TRIPOS>ATOM
      1 CAZ        29.8988   37.9447   16.2295 C.3         1 GSZ      -0.0456
      2 CAN        29.6963   39.4812   16.1644 C.3         1 GSZ       0.0432
      3 CBA        28.8806   39.8955   14.9115 C.3         1 GSZ      -0.0456
      4 CAL        30.9502   40.2282   16.2203 C.2         1 GSZ       0.1811
      5 OAM        31.0447   41.2606   16.8772 O.2         1 GSZ      -0.3966
      6 NAK        32.0040   39.8120   15.5220 N.am        1 GSZ      -0.2638
      7 CAC        33.2992   40.4349   15.4402 C.3         1 GSZ       0.1446
      8 CAB        33.2489   41.6542   14.4679 C.3         1 GSZ       0.1222
      9 OAG        32.4312   42.6942   15.0053 O.3         1 GSZ      -0.3842
     10 CAA        34.6681   42.1991   14.1642 C.3         1 GSZ       0.1176
     11 OAH        34.5709   43.2632   13.2084 O.3         1 GSZ      -0.3858
     12 CAF        35.6356   41.0907   13.6210 C.3         1 GSZ       0.1168
     13 CAI        37.1245   41.5130   13.8070 C.3         1 GSZ       0.0768
     14 OAJ        37.3842   42.0314   15.1129 O.3         1 GSZ      -0.3919
     15 NAE        35.3393   39.7841   14.1647 N.pl3       1 GSZ      -0.2497
     16 CAQ        35.9482   38.6322   13.8430 C.2         1 GSZ       0.0236
     17 CAD        34.3172   39.4614   14.9843 C.2         1 GSZ       0.1393
     18 NAO        34.3067   38.1361   15.2284 N.2         1 GSZ      -0.3317
     19 CAP        35.3143   37.5996   14.5233 C.2         1 GSZ      -0.0178
     20 CAR        35.6525   36.1651   14.4238 C.3         1 GSZ      -0.0191
     21 CAS        35.1630   35.5101   13.0929 C.3         1 GSZ      -0.0133
     22 CAT        36.1873   34.6677   12.4149 C.ar        1 GSZ      -0.0416
     23 CAU        36.1359   33.2543   12.4647 C.ar        1 GSZ      -0.0602
     24 CAV        37.1031   32.4750   11.8001 C.ar        1 GSZ      -0.0686
     25 CAW        38.1243   33.0980   11.0618 C.ar        1 GSZ      -0.0687
     26 CAX        38.1849   34.5011   10.9969 C.ar        1 GSZ      -0.0686
     27 CAY        37.2231   35.2788   11.6688 C.ar        1 GSZ      -0.0602
     28 H1         28.9217   37.4502   16.2820 H           1 GSZ       0.0257
     29 H2         30.4737   37.6664   17.1136 H           1 GSZ       0.0257
     30 H3         30.4101   37.5701   15.3438 H           1 GSZ       0.0257
     31 H4         29.0984   39.7557   17.0371 H           1 GSZ       0.0532
     32 H5         28.6705   40.9693   14.9266 H           1 GSZ       0.0257
     33 H6         27.9286   39.3615   14.8948 H           1 GSZ       0.0257
     34 H7         29.4289   39.6649   13.9922 H           1 GSZ       0.0257
     35 H8         31.9164   38.9842   15.0196 H           1 GSZ       0.1888
     36 H9         33.6053   40.7587   16.4527 H           1 GSZ       0.0820
     37 H10        32.8075   41.3185   13.5232 H           1 GSZ       0.0672
     38 H11        32.2907   42.4756   15.9580 H           1 GSZ       0.2103
     39 H12        35.0546   42.6202   15.0953 H           1 GSZ       0.0654
     40 H13        33.8555   43.8455   13.5314 H           1 GSZ       0.2100
     41 H14        35.4591   41.0050   12.5497 H           1 GSZ       0.0699
     42 H15        37.3833   42.2883   13.0792 H           1 GSZ       0.0589
     43 H16        37.7837   40.6623   13.6252 H           1 GSZ       0.0589
     44 H17        38.3248   41.7660   15.3192 H           1 GSZ       0.2095
     45 H18        36.7205   38.5145   13.1856 H           1 GSZ       0.0663
     46 H19        35.2046   35.6343   15.2662 H           1 GSZ       0.0392
     47 H20        36.7374   36.0743   14.5342 H           1 GSZ       0.0392
     48 H21        34.8438   36.2756   12.3789 H           1 GSZ       0.0442
     49 H22        34.2677   34.9199   13.3081 H           1 GSZ       0.0442
     50 H23        35.3997   32.7776   12.9926 H           1 GSZ       0.0557
     51 H24        37.0641   31.4542   11.8480 H           1 GSZ       0.0599
     52 H25        38.8276   32.5340   10.5777 H           1 GSZ       0.0559
     53 H26        38.9242   34.9583   10.4576 H           1 GSZ       0.0599
     54 H27        37.2798   36.2985   11.6079 H           1 GSZ       0.0557
@<TRIPOS>BOND
     1     1     2   1
     2     2     3   1
     3     2     4   1
     4     4     5   2
     5     4     6  am
     6     6     7   1
     7     7     8   1
     8     7    17   1
     9     8     9   1
    10     8    10   1
    11    10    11   1
    12    10    12   1
    13    12    13   1
    14    12    15   1
    15    13    14   1
    16    15    16   1
    17    15    17   1
    18    16    19   2
    19    17    18   2
    20    18    19   1
    21    19    20   1
    22    20    21   1
    23    21    22   1
    24    22    23  ar
    25    22    27  ar
    26    23    24  ar
    27    24    25  ar
    28    25    26  ar
    29    26    27  ar
    30     1    28   1
    31     1    29   1
    32     1    30   1
    33     2    31   1
    34     3    32   1
    35     3    33   1
    36     3    34   1
    37     6    35   1
    38     7    36   1
    39     8    37   1
    40     9    38   1
    41    10    39   1
    42    11    40   1
    43    12    41   1
    44    13    42   1
    45    13    43   1
    46    14    44   1
    47    16    45   1
    48    20    46   1
    49    20    47   1
    50    21    48   1
    51    21    49   1
    52    23    50   1
    53    24    51   1
    54    25    52   1
    55    26    53   1
    56    27    54   1
@<TRIPOS>SUBSTRUCTURE
     1  GSZ      1

