@<TRIPOS>MOLECULE
2j62_ligand_034
    54    56
SMALL
GAST_HUCK
****
This file was generated by PARSER (from files_GN.cpp)

@<TRIPOS>ATOM
      1 CAZ        32.8714   39.6417   15.6651 C.3         1 GSZ      -0.0456
      2 CAN        32.5812   38.7231   16.8858 C.3         1 GSZ       0.0432
      3 CBA        31.7936   37.4558   16.4294 C.3         1 GSZ      -0.0456
      4 CAL        31.9552   39.4612   17.9856 C.2         1 GSZ       0.1811
      5 OAM        30.9630   39.0159   18.5516 O.2         1 GSZ      -0.3966
      6 NAK        32.5167   40.5849   18.4178 N.am        1 GSZ      -0.2638
      7 CAC        32.1786   41.3822   19.5633 C.3         1 GSZ       0.1446
      8 CAB        32.1907   40.5599   20.8863 C.3         1 GSZ       0.1222
      9 OAG        33.4973   40.0378   21.1431 O.3         1 GSZ      -0.3842
     10 CAA        31.7487   41.4361   22.0895 C.3         1 GSZ       0.1176
     11 OAH        31.6107   40.5911   23.2364 O.3         1 GSZ      -0.3858
     12 CAF        30.4106   42.2328   21.8550 C.3         1 GSZ       0.1168
     13 CAI        30.4493   43.5921   22.6173 C.3         1 GSZ       0.0768
     14 OAJ        30.7808   43.4465   23.9994 O.3         1 GSZ      -0.3919
     15 NAE        30.1204   42.4598   20.4554 N.pl3       1 GSZ      -0.2497
     16 CAQ        29.0605   43.0991   19.9306 C.2         1 GSZ       0.0236
     17 CAD        30.8991   42.1079   19.4121 C.2         1 GSZ       0.1393
     18 NAO        30.3980   42.5896   18.2594 N.2         1 GSZ      -0.3317
     19 CAP        29.2535   43.2225   18.5571 C.2         1 GSZ      -0.0178
     20 CAR        28.4146   44.0277   17.6459 C.3         1 GSZ      -0.0191
     21 CAS        28.8289   44.0321   16.1490 C.3         1 GSZ      -0.0133
     22 CAT        28.4342   42.7926   15.4256 C.ar        1 GSZ      -0.0416
     23 CAU        29.4026   41.8783   14.9441 C.ar        1 GSZ      -0.0602
     24 CAV        29.0114   40.7293   14.2288 C.ar        1 GSZ      -0.0686
     25 CAW        27.6488   40.4704   13.9990 C.ar        1 GSZ      -0.0687
     26 CAX        26.6767   41.3678   14.4770 C.ar        1 GSZ      -0.0686
     27 CAY        27.0656   42.5217   15.1799 C.ar        1 GSZ      -0.0602
     28 H1         33.3520   39.0779   14.8665 H           1 GSZ       0.0257
     29 H2         33.5409   40.4575   15.9416 H           1 GSZ       0.0257
     30 H3         31.9393   40.0687   15.2878 H           1 GSZ       0.0257
     31 H4         33.5487   38.3725   17.2536 H           1 GSZ       0.0532
     32 H5         31.6698   36.7637   17.2651 H           1 GSZ       0.0257
     33 H6         32.3366   36.9323   15.6414 H           1 GSZ       0.0257
     34 H7         30.8055   37.7211   16.0537 H           1 GSZ       0.0257
     35 H8         33.2638   40.9220   17.9052 H           1 GSZ       0.1888
     36 H9         32.9520   42.1469   19.6333 H           1 GSZ       0.0820
     37 H10        31.4988   39.7129   20.8007 H           1 GSZ       0.0672
     38 H11        33.9052   39.8773   20.2609 H           1 GSZ       0.2103
     39 H12        32.5638   42.1314   22.2875 H           1 GSZ       0.0654
     40 H13        31.4134   41.1958   23.9745 H           1 GSZ       0.2100
     41 H14        29.5719   41.6448   22.2587 H           1 GSZ       0.0699
     42 H15        29.4786   44.0832   22.5681 H           1 GSZ       0.0589
     43 H16        31.1845   44.2519   22.1564 H           1 GSZ       0.0589
     44 H17        31.1795   44.3008   24.2617 H           1 GSZ       0.2095
     45 H18        28.2873   43.5127   20.4593 H           1 GSZ       0.0663
     46 H19        28.4548   45.0631   18.0003 H           1 GSZ       0.0392
     47 H20        27.3793   43.6891   17.7392 H           1 GSZ       0.0392
     48 H21        29.9034   44.2114   16.0758 H           1 GSZ       0.0442
     49 H22        28.3416   44.8767   15.6504 H           1 GSZ       0.0442
     50 H23        30.3964   42.0583   15.1028 H           1 GSZ       0.0557
     51 H24        29.7150   40.0802   13.8688 H           1 GSZ       0.0599
     52 H25        27.3681   39.6301   13.4821 H           1 GSZ       0.0559
     53 H26        25.6857   41.1866   14.3096 H           1 GSZ       0.0599
     54 H27        26.3439   43.1687   15.5049 H           1 GSZ       0.0557
@<TRIPOS>BOND
     1     1     2   1
     2     2     3   1
     3     2     4   1
     4     4     5   2
     5     4     6  am
     6     6     7   1
     7     7     8   1
     8     7    17   1
     9     8     9   1
    10     8    10   1
    11    10    11   1
    12    10    12   1
    13    12    13   1
    14    12    15   1
    15    13    14   1
    16    15    16   1
    17    15    17   1
    18    16    19   2
    19    17    18   2
    20    18    19   1
    21    19    20   1
    22    20    21   1
    23    21    22   1
    24    22    23  ar
    25    22    27  ar
    26    23    24  ar
    27    24    25  ar
    28    25    26  ar
    29    26    27  ar
    30     1    28   1
    31     1    29   1
    32     1    30   1
    33     2    31   1
    34     3    32   1
    35     3    33   1
    36     3    34   1
    37     6    35   1
    38     7    36   1
    39     8    37   1
    40     9    38   1
    41    10    39   1
    42    11    40   1
    43    12    41   1
    44    13    42   1
    45    13    43   1
    46    14    44   1
    47    16    45   1
    48    20    46   1
    49    20    47   1
    50    21    48   1
    51    21    49   1
    52    23    50   1
    53    24    51   1
    54    25    52   1
    55    26    53   1
    56    27    54   1
@<TRIPOS>SUBSTRUCTURE
     1  GSZ      1

