@<TRIPOS>MOLECULE
2j62_ligand_025
    54    56
SMALL
GAST_HUCK
****
This file was generated by PARSER (from files_GN.cpp)

@<TRIPOS>ATOM
      1 CAZ        38.6613   33.2192    9.8813 C.3         1 GSZ      -0.0456
      2 CAN        38.7977   34.7059    9.4509 C.3         1 GSZ       0.0432
      3 CBA        40.2800   35.0918    9.1977 C.3         1 GSZ      -0.0456
      4 CAL        38.2038   35.6091   10.4334 C.2         1 GSZ       0.1811
      5 OAM        38.5584   35.5289   11.6008 O.2         1 GSZ      -0.3966
      6 NAK        37.3115   36.5209   10.0541 N.am        1 GSZ      -0.2638
      7 CAC        36.6483   37.5468   10.8220 C.3         1 GSZ       0.1446
      8 CAB        37.4380   38.8987   10.8112 C.3         1 GSZ       0.1222
      9 OAG        36.5501   39.9939   10.5989 O.3         1 GSZ      -0.3842
     10 CAA        38.2752   39.1728   12.0969 C.3         1 GSZ       0.1176
     11 OAH        39.4669   38.3799   12.0773 O.3         1 GSZ      -0.3858
     12 CAF        37.4884   38.9005   13.4261 C.3         1 GSZ       0.1168
     13 CAI        36.5986   40.1046   13.8651 C.3         1 GSZ       0.0768
     14 OAJ        36.7343   40.3766   15.2523 O.3         1 GSZ      -0.3919
     15 NAE        36.7052   37.6938   13.3303 N.pl3       1 GSZ      -0.2497
     16 CAQ        36.1721   37.0023   14.3552 C.2         1 GSZ       0.0236
     17 CAD        36.2642   37.1291   12.1901 C.2         1 GSZ       0.1393
     18 NAO        35.4500   36.1027   12.4754 N.2         1 GSZ      -0.3317
     19 CAP        35.3644   36.0107   13.8110 C.2         1 GSZ      -0.0178
     20 CAR        34.4784   35.0789   14.5250 C.3         1 GSZ      -0.0191
     21 CAS        32.9937   35.5388   14.5229 C.3         1 GSZ      -0.0133
     22 CAT        32.7289   36.7171   15.4022 C.ar        1 GSZ      -0.0416
     23 CAU        31.7912   36.6405   16.4610 C.ar        1 GSZ      -0.0602
     24 CAV        31.5647   37.7464   17.2975 C.ar        1 GSZ      -0.0686
     25 CAW        32.2716   38.9471   17.1008 C.ar        1 GSZ      -0.0687
     26 CAX        33.1900   39.0490   16.0407 C.ar        1 GSZ      -0.0686
     27 CAY        33.4049   37.9447   15.1913 C.ar        1 GSZ      -0.0602
     28 H1         39.0338   32.5675    9.0918 H           1 GSZ       0.0257
     29 H2         37.6120   32.9693   10.0622 H           1 GSZ       0.0257
     30 H3         39.2287   33.0134   10.7941 H           1 GSZ       0.0257
     31 H4         38.2743   34.8061    8.4963 H           1 GSZ       0.0532
     32 H5         40.3433   36.1108    8.8100 H           1 GSZ       0.0257
     33 H6         40.7318   34.4188    8.4677 H           1 GSZ       0.0257
     34 H7         40.8610   35.0396   10.1221 H           1 GSZ       0.0257
     35 H8         37.0817   36.5109    9.1083 H           1 GSZ       0.1888
     36 H9         35.7079   37.7151   10.2853 H           1 GSZ       0.0820
     37 H10        38.1203   38.9132    9.9488 H           1 GSZ       0.0672
     38 H11        35.8680   39.9309   11.3048 H           1 GSZ       0.2103
     39 H12        38.6249   40.2052   12.0791 H           1 GSZ       0.0654
     40 H13        39.3446   37.7030   12.7707 H           1 GSZ       0.2100
     41 H14        38.2396   38.7582   14.2137 H           1 GSZ       0.0699
     42 H15        35.5421   39.9020   13.6587 H           1 GSZ       0.0589
     43 H16        36.8817   41.0157   13.3262 H           1 GSZ       0.0589
     44 H17        37.6867   40.5908   15.3600 H           1 GSZ       0.2095
     45 H18        36.2840   37.2166   15.3448 H           1 GSZ       0.0663
     46 H19        34.8068   34.9519   15.5594 H           1 GSZ       0.0392
     47 H20        34.5539   34.1015   14.0359 H           1 GSZ       0.0392
     48 H21        32.3941   34.6859   14.8449 H           1 GSZ       0.0442
     49 H22        32.6673   35.7584   13.5012 H           1 GSZ       0.0442
     50 H23        31.2732   35.7737   16.6348 H           1 GSZ       0.0557
     51 H24        30.8960   37.6803   18.0666 H           1 GSZ       0.0599
     52 H25        32.1142   39.7478   17.7124 H           1 GSZ       0.0559
     53 H26        33.6982   39.9244   15.8753 H           1 GSZ       0.0599
     54 H27        34.0491   38.0589   14.4017 H           1 GSZ       0.0557
@<TRIPOS>BOND
     1     1     2   1
     2     2     3   1
     3     2     4   1
     4     4     5   2
     5     4     6  am
     6     6     7   1
     7     7     8   1
     8     7    17   1
     9     8     9   1
    10     8    10   1
    11    10    11   1
    12    10    12   1
    13    12    13   1
    14    12    15   1
    15    13    14   1
    16    15    16   1
    17    15    17   1
    18    16    19   2
    19    17    18   2
    20    18    19   1
    21    19    20   1
    22    20    21   1
    23    21    22   1
    24    22    23  ar
    25    22    27  ar
    26    23    24  ar
    27    24    25  ar
    28    25    26  ar
    29    26    27  ar
    30     1    28   1
    31     1    29   1
    32     1    30   1
    33     2    31   1
    34     3    32   1
    35     3    33   1
    36     3    34   1
    37     6    35   1
    38     7    36   1
    39     8    37   1
    40     9    38   1
    41    10    39   1
    42    11    40   1
    43    12    41   1
    44    13    42   1
    45    13    43   1
    46    14    44   1
    47    16    45   1
    48    20    46   1
    49    20    47   1
    50    21    48   1
    51    21    49   1
    52    23    50   1
    53    24    51   1
    54    25    52   1
    55    26    53   1
    56    27    54   1
@<TRIPOS>SUBSTRUCTURE
     1  GSZ      1

