@<TRIPOS>MOLECULE
2j62_ligand_044
    54    56
SMALL
GAST_HUCK
****
This file was generated by PARSER (from files_GN.cpp)

@<TRIPOS>ATOM
      1 CAZ        35.6963   33.0480   13.8078 C.3         1 GSZ      -0.0456
      2 CAN        34.4298   33.7529   14.3648 C.3         1 GSZ       0.0432
      3 CBA        33.1389   33.0675   13.8309 C.3         1 GSZ      -0.0456
      4 CAL        34.5019   35.1926   14.1172 C.2         1 GSZ       0.1811
      5 OAM        33.6913   35.7502   13.3878 O.2         1 GSZ      -0.3966
      6 NAK        35.4767   35.8990   14.6835 N.am        1 GSZ      -0.2638
      7 CAC        35.7465   37.3068   14.5556 C.3         1 GSZ       0.1446
      8 CAB        34.5034   38.1734   14.9189 C.3         1 GSZ       0.1222
      9 OAG        34.2807   38.0845   16.3249 O.3         1 GSZ      -0.3842
     10 CAA        34.6851   39.6562   14.4892 C.3         1 GSZ       0.1176
     11 OAH        33.4827   40.3749   14.7871 O.3         1 GSZ      -0.3858
     12 CAF        35.0438   39.8033   12.9671 C.3         1 GSZ       0.1168
     13 CAI        35.5547   41.2510   12.6904 C.3         1 GSZ       0.0768
     14 OAJ        35.7569   41.5285   11.3106 O.3         1 GSZ      -0.3919
     15 NAE        35.9563   38.7684   12.5220 N.pl3       1 GSZ      -0.2497
     16 CAQ        36.5692   38.6455   11.3285 C.2         1 GSZ       0.0236
     17 CAD        36.2841   37.6608   13.2232 C.2         1 GSZ       0.1393
     18 NAO        37.1260   36.8859   12.5170 N.2         1 GSZ      -0.3317
     19 CAP        37.3343   37.4845   11.3376 C.2         1 GSZ      -0.0178
     20 CAR        38.1046   36.9344   10.2025 C.3         1 GSZ      -0.0191
     21 CAS        39.2771   35.9927   10.6125 C.3         1 GSZ      -0.0133
     22 CAT        39.6509   35.0570    9.5158 C.ar        1 GSZ      -0.0416
     23 CAU        40.6285   35.4073    8.5539 C.ar        1 GSZ      -0.0602
     24 CAV        40.9559   34.5211    7.5080 C.ar        1 GSZ      -0.0686
     25 CAW        40.3008   33.2829    7.4038 C.ar        1 GSZ      -0.0687
     26 CAX        39.3203   32.9249    8.3437 C.ar        1 GSZ      -0.0686
     27 CAY        38.9975   33.8059    9.3929 C.ar        1 GSZ      -0.0602
     28 H1         35.6593   31.9786   14.0233 H           1 GSZ       0.0257
     29 H2         36.5952   33.4540   14.2746 H           1 GSZ       0.0257
     30 H3         35.7767   33.1817   12.7274 H           1 GSZ       0.0257
     31 H4         34.4235   33.6089   15.4525 H           1 GSZ       0.0532
     32 H5         32.2563   33.5420   14.2598 H           1 GSZ       0.0257
     33 H6         33.1277   32.0138   14.1137 H           1 GSZ       0.0257
     34 H7         33.0734   33.1345   12.7453 H           1 GSZ       0.0257
     35 H8         36.0884   35.4038   15.2484 H           1 GSZ       0.1888
     36 H9         36.5428   37.5318   15.2725 H           1 GSZ       0.0820
     37 H10        33.6191   37.7727   14.4225 H           1 GSZ       0.0672
     38 H11        33.4203   38.5268   16.4822 H           1 GSZ       0.2103
     39 H12        35.4984   40.0774   15.0936 H           1 GSZ       0.0654
     40 H13        32.7502   39.8436   14.3976 H           1 GSZ       0.2100
     41 H14        34.1220   39.6723   12.3959 H           1 GSZ       0.0699
     42 H15        36.4971   41.4264   13.2101 H           1 GSZ       0.0589
     43 H16        34.8254   41.9782   13.0475 H           1 GSZ       0.0589
     44 H17        35.1991   40.8797   10.8334 H           1 GSZ       0.2095
     45 H18        36.4954   39.2776   10.5343 H           1 GSZ       0.0663
     46 H19        38.5106   37.7615    9.6123 H           1 GSZ       0.0392
     47 H20        37.3972   36.3985    9.5641 H           1 GSZ       0.0392
     48 H21        38.9996   35.4035   11.4891 H           1 GSZ       0.0442
     49 H22        40.1434   36.5930   10.9109 H           1 GSZ       0.0442
     50 H23        41.1064   36.3086    8.6066 H           1 GSZ       0.0557
     51 H24        41.6698   34.7799    6.8251 H           1 GSZ       0.0599
     52 H25        40.5437   32.6364    6.6502 H           1 GSZ       0.0559
     53 H26        38.8490   32.0201    8.2748 H           1 GSZ       0.0599
     54 H27        38.2760   33.5299   10.0654 H           1 GSZ       0.0557
@<TRIPOS>BOND
     1     1     2   1
     2     2     3   1
     3     2     4   1
     4     4     5   2
     5     4     6  am
     6     6     7   1
     7     7     8   1
     8     7    17   1
     9     8     9   1
    10     8    10   1
    11    10    11   1
    12    10    12   1
    13    12    13   1
    14    12    15   1
    15    13    14   1
    16    15    16   1
    17    15    17   1
    18    16    19   2
    19    17    18   2
    20    18    19   1
    21    19    20   1
    22    20    21   1
    23    21    22   1
    24    22    23  ar
    25    22    27  ar
    26    23    24  ar
    27    24    25  ar
    28    25    26  ar
    29    26    27  ar
    30     1    28   1
    31     1    29   1
    32     1    30   1
    33     2    31   1
    34     3    32   1
    35     3    33   1
    36     3    34   1
    37     6    35   1
    38     7    36   1
    39     8    37   1
    40     9    38   1
    41    10    39   1
    42    11    40   1
    43    12    41   1
    44    13    42   1
    45    13    43   1
    46    14    44   1
    47    16    45   1
    48    20    46   1
    49    20    47   1
    50    21    48   1
    51    21    49   1
    52    23    50   1
    53    24    51   1
    54    25    52   1
    55    26    53   1
    56    27    54   1
@<TRIPOS>SUBSTRUCTURE
     1  GSZ      1

