@<TRIPOS>MOLECULE
2j62_ligand_007
    54    56
SMALL
GAST_HUCK
****
This file was generated by PARSER (from files_GN.cpp)

@<TRIPOS>ATOM
      1 CAZ        32.5885   39.9507   15.7896 C.3         1 GSZ      -0.0456
      2 CAN        32.4557   39.0104   17.0274 C.3         1 GSZ       0.0432
      3 CBA        31.6174   37.7613   16.6206 C.3         1 GSZ      -0.0456
      4 CAL        31.9517   39.7212   18.2088 C.2         1 GSZ       0.1811
      5 OAM        31.0568   39.2222   18.8806 O.2         1 GSZ      -0.3966
      6 NAK        32.4805   40.8955   18.5594 N.am        1 GSZ      -0.2638
      7 CAC        32.0756   41.8936   19.5151 C.3         1 GSZ       0.1446
      8 CAB        33.2767   42.4022   20.3584 C.3         1 GSZ       0.1222
      9 OAG        33.2234   43.8274   20.4741 O.3         1 GSZ      -0.3842
     10 CAA        33.3153   41.8092   21.8092 C.3         1 GSZ       0.1176
     11 OAH        33.6719   40.4234   21.7635 O.3         1 GSZ      -0.3858
     12 CAF        31.9499   41.9765   22.5758 C.3         1 GSZ       0.1168
     13 CAI        31.7505   43.4109   23.1529 C.3         1 GSZ       0.0768
     14 OAJ        30.7613   43.4480   24.1821 O.3         1 GSZ      -0.3919
     15 NAE        30.8452   41.6397   21.7200 N.pl3       1 GSZ      -0.2497
     16 CAQ        29.5660   41.4038   22.0613 C.2         1 GSZ       0.0236
     17 CAD        30.8988   41.5921   20.3700 C.2         1 GSZ       0.1393
     18 NAO        29.6779   41.3480   19.8595 N.2         1 GSZ      -0.3317
     19 CAP        28.8363   41.2293   20.8858 C.2         1 GSZ      -0.0178
     20 CAR        27.3789   41.0795   20.7345 C.3         1 GSZ      -0.0191
     21 CAS        26.9000   40.8769   19.2609 C.3         1 GSZ      -0.0133
     22 CAT        27.5219   41.6874   18.1750 C.ar        1 GSZ      -0.0416
     23 CAU        28.2328   42.8875   18.4160 C.ar        1 GSZ      -0.0602
     24 CAV        28.8792   43.5757   17.3663 C.ar        1 GSZ      -0.0686
     25 CAW        28.8217   43.0823   16.0523 C.ar        1 GSZ      -0.0687
     26 CAX        28.0996   41.9053   15.7895 C.ar        1 GSZ      -0.0686
     27 CAY        27.4494   41.2233   16.8345 C.ar        1 GSZ      -0.0602
     28 H1         32.9586   39.3999   14.9204 H           1 GSZ       0.0257
     29 H2         33.2996   40.7565   15.9829 H           1 GSZ       0.0257
     30 H3         31.6187   40.3917   15.5372 H           1 GSZ       0.0257
     31 H4         33.4569   38.6568   17.2688 H           1 GSZ       0.0532
     32 H5         31.5476   37.0554   17.4488 H           1 GSZ       0.0257
     33 H6         32.0814   37.2386   15.7784 H           1 GSZ       0.0257
     34 H7         30.6054   38.0546   16.3297 H           1 GSZ       0.0257
     35 H8         33.2188   41.1943   18.0138 H           1 GSZ       0.1888
     36 H9         31.7382   42.7125   18.8952 H           1 GSZ       0.0820
     37 H10        34.2103   42.1664   19.8498 H           1 GSZ       0.0672
     38 H11        34.1300   44.1357   20.2011 H           1 GSZ       0.2103
     39 H12        34.1316   42.3074   22.3688 H           1 GSZ       0.0654
     40 H13        33.8842   40.2241   20.8137 H           1 GSZ       0.2100
     41 H14        31.9657   41.2819   23.4164 H           1 GSZ       0.0699
     42 H15        31.4558   44.1206   22.3746 H           1 GSZ       0.0589
     43 H16        32.6803   43.7708   23.6076 H           1 GSZ       0.0589
     44 H17        29.8887   43.5064   23.7248 H           1 GSZ       0.2095
     45 H18        29.1785   41.3952   23.0084 H           1 GSZ       0.0663
     46 H19        26.8880   41.9517   21.1669 H           1 GSZ       0.0392
     47 H20        27.0649   40.2079   21.3317 H           1 GSZ       0.0392
     48 H21        25.8182   41.0501   19.2304 H           1 GSZ       0.0442
     49 H22        27.0544   39.8168   19.0348 H           1 GSZ       0.0442
     50 H23        28.3393   43.2584   19.3661 H           1 GSZ       0.0557
     51 H24        29.4263   44.4294   17.5711 H           1 GSZ       0.0599
     52 H25        29.3049   43.5643   15.3016 H           1 GSZ       0.0559
     53 H26        28.0569   41.5343   14.8407 H           1 GSZ       0.0599
     54 H27        26.9398   40.3506   16.6198 H           1 GSZ       0.0557
@<TRIPOS>BOND
     1     1     2   1
     2     2     3   1
     3     2     4   1
     4     4     5   2
     5     4     6  am
     6     6     7   1
     7     7     8   1
     8     7    17   1
     9     8     9   1
    10     8    10   1
    11    10    11   1
    12    10    12   1
    13    12    13   1
    14    12    15   1
    15    13    14   1
    16    15    16   1
    17    15    17   1
    18    16    19   2
    19    17    18   2
    20    18    19   1
    21    19    20   1
    22    20    21   1
    23    21    22   1
    24    22    23  ar
    25    22    27  ar
    26    23    24  ar
    27    24    25  ar
    28    25    26  ar
    29    26    27  ar
    30     1    28   1
    31     1    29   1
    32     1    30   1
    33     2    31   1
    34     3    32   1
    35     3    33   1
    36     3    34   1
    37     6    35   1
    38     7    36   1
    39     8    37   1
    40     9    38   1
    41    10    39   1
    42    11    40   1
    43    12    41   1
    44    13    42   1
    45    13    43   1
    46    14    44   1
    47    16    45   1
    48    20    46   1
    49    20    47   1
    50    21    48   1
    51    21    49   1
    52    23    50   1
    53    24    51   1
    54    25    52   1
    55    26    53   1
    56    27    54   1
@<TRIPOS>SUBSTRUCTURE
     1  GSZ      1

