@<TRIPOS>MOLECULE
2j62_ligand_032
    54    56
SMALL
GAST_HUCK
****
This file was generated by PARSER (from files_GN.cpp)

@<TRIPOS>ATOM
      1 CAZ        34.6347   39.5419   13.5243 C.3         1 GSZ      -0.0456
      2 CAN        33.5542   40.5622   13.9851 C.3         1 GSZ       0.0432
      3 CBA        34.1754   41.9790   14.1409 C.3         1 GSZ      -0.0456
      4 CAL        32.8315   40.1743   15.1961 C.2         1 GSZ       0.1811
      5 OAM        33.2568   39.2806   15.9206 O.2         1 GSZ      -0.3966
      6 NAK        31.6846   40.7836   15.4858 N.am        1 GSZ      -0.2638
      7 CAC        30.8198   40.4984   16.5981 C.3         1 GSZ       0.1446
      8 CAB        29.3832   41.0127   16.2867 C.3         1 GSZ       0.1222
      9 OAG        28.8009   40.2231   15.2459 O.3         1 GSZ      -0.3842
     10 CAA        28.4869   40.9736   17.5552 C.3         1 GSZ       0.1176
     11 OAH        27.1755   41.4430   17.2386 O.3         1 GSZ      -0.3858
     12 CAF        29.0957   41.7976   18.7435 C.3         1 GSZ       0.1168
     13 CAI        28.4224   41.3577   20.0788 C.3         1 GSZ       0.0768
     14 OAJ        28.6661   42.2933   21.1232 O.3         1 GSZ      -0.3919
     15 NAE        30.5409   41.6963   18.7885 N.pl3       1 GSZ      -0.2497
     16 CAQ        31.3760   42.1946   19.7193 C.2         1 GSZ       0.0236
     17 CAD        31.3197   41.1156   17.8476 C.2         1 GSZ       0.1393
     18 NAO        32.6116   41.1759   18.2071 N.2         1 GSZ      -0.3317
     19 CAP        32.6731   41.8372   19.3720 C.2         1 GSZ      -0.0178
     20 CAR        33.9070   42.1397   20.1188 C.3         1 GSZ      -0.0191
     21 CAS        34.0200   41.3133   21.4306 C.3         1 GSZ      -0.0133
     22 CAT        35.3555   41.4379   22.0819 C.ar        1 GSZ      -0.0416
     23 CAU        35.8371   42.7023   22.4987 C.ar        1 GSZ      -0.0602
     24 CAV        37.1131   42.8327   23.0753 C.ar        1 GSZ      -0.0686
     25 CAW        37.9128   41.6951   23.2776 C.ar        1 GSZ      -0.0687
     26 CAX        37.4397   40.4278   22.8968 C.ar        1 GSZ      -0.0686
     27 CAY        36.1717   40.3005   22.2985 C.ar        1 GSZ      -0.0602
     28 H1         35.0741   39.8596   12.5766 H           1 GSZ       0.0257
     29 H2         34.1848   38.5596   13.3738 H           1 GSZ       0.0257
     30 H3         35.4305   39.4541   14.2653 H           1 GSZ       0.0257
     31 H4         32.8224   40.6049   13.1723 H           1 GSZ       0.0532
     32 H5         33.4105   42.7176   14.3933 H           1 GSZ       0.0257
     33 H6         34.6432   42.2903   13.2046 H           1 GSZ       0.0257
     34 H7         34.9346   41.9834   14.9278 H           1 GSZ       0.0257
     35 H8         31.3828   41.4649   14.8632 H           1 GSZ       0.1888
     36 H9         30.7687   39.4159   16.7547 H           1 GSZ       0.0820
     37 H10        29.4307   42.0463   15.9282 H           1 GSZ       0.0672
     38 H11        28.7633   39.3080   15.5995 H           1 GSZ       0.2103
     39 H12        28.3920   39.9261   17.8534 H           1 GSZ       0.0654
     40 H13        27.2941   42.3726   16.9486 H           1 GSZ       0.2100
     41 H14        28.8565   42.8532   18.5774 H           1 GSZ       0.0699
     42 H15        28.7999   40.3796   20.3843 H           1 GSZ       0.0589
     43 H16        27.3398   41.2841   19.9568 H           1 GSZ       0.0589
     44 H17        28.1921   41.9416   21.9061 H           1 GSZ       0.2095
     45 H18        31.1224   42.7392   20.5440 H           1 GSZ       0.0663
     46 H19        33.9138   43.2098   20.3419 H           1 GSZ       0.0392
     47 H20        34.7705   41.9265   19.4829 H           1 GSZ       0.0392
     48 H21        33.8089   40.2634   21.1980 H           1 GSZ       0.0442
     49 H22        33.2571   41.6474   22.1388 H           1 GSZ       0.0442
     50 H23        35.2649   43.5398   22.3721 H           1 GSZ       0.0557
     51 H24        37.4588   43.7561   23.3429 H           1 GSZ       0.0599
     52 H25        38.8356   41.7885   23.7052 H           1 GSZ       0.0559
     53 H26        38.0223   39.6008   23.0475 H           1 GSZ       0.0599
     54 H27        35.8515   39.3692   22.0194 H           1 GSZ       0.0557
@<TRIPOS>BOND
     1     1     2   1
     2     2     3   1
     3     2     4   1
     4     4     5   2
     5     4     6  am
     6     6     7   1
     7     7     8   1
     8     7    17   1
     9     8     9   1
    10     8    10   1
    11    10    11   1
    12    10    12   1
    13    12    13   1
    14    12    15   1
    15    13    14   1
    16    15    16   1
    17    15    17   1
    18    16    19   2
    19    17    18   2
    20    18    19   1
    21    19    20   1
    22    20    21   1
    23    21    22   1
    24    22    23  ar
    25    22    27  ar
    26    23    24  ar
    27    24    25  ar
    28    25    26  ar
    29    26    27  ar
    30     1    28   1
    31     1    29   1
    32     1    30   1
    33     2    31   1
    34     3    32   1
    35     3    33   1
    36     3    34   1
    37     6    35   1
    38     7    36   1
    39     8    37   1
    40     9    38   1
    41    10    39   1
    42    11    40   1
    43    12    41   1
    44    13    42   1
    45    13    43   1
    46    14    44   1
    47    16    45   1
    48    20    46   1
    49    20    47   1
    50    21    48   1
    51    21    49   1
    52    23    50   1
    53    24    51   1
    54    25    52   1
    55    26    53   1
    56    27    54   1
@<TRIPOS>SUBSTRUCTURE
     1  GSZ      1

