@<TRIPOS>MOLECULE
2j62_ligand_038
    54    56
SMALL
GAST_HUCK
****
This file was generated by PARSER (from files_GN.cpp)

@<TRIPOS>ATOM
      1 CAZ        40.2495   35.5773   10.3557 C.3         1 GSZ      -0.0456
      2 CAN        38.7030   35.6312   10.5175 C.3         1 GSZ       0.0432
      3 CBA        38.0334   34.6429    9.5145 C.3         1 GSZ      -0.0456
      4 CAL        38.2265   37.0099   10.4560 C.2         1 GSZ       0.1811
      5 OAM        38.5712   37.7716   11.3586 O.2         1 GSZ      -0.3966
      6 NAK        37.3804   37.4432    9.5246 N.am        1 GSZ      -0.2638
      7 CAC        36.7947   38.7434    9.4037 C.3         1 GSZ       0.1446
      8 CAB        37.7388   39.7407    8.6723 C.3         1 GSZ       0.1222
      9 OAG        37.9587   39.3178    7.3242 O.3         1 GSZ      -0.3842
     10 CAA        37.1657   41.1828    8.7009 C.3         1 GSZ       0.1176
     11 OAH        38.0827   42.0523    8.0333 O.3         1 GSZ      -0.3858
     12 CAF        36.8744   41.6815   10.1659 C.3         1 GSZ       0.1168
     13 CAI        35.8958   42.8954   10.1143 C.3         1 GSZ       0.0768
     14 OAJ        35.3697   43.2740   11.3871 O.3         1 GSZ      -0.3919
     15 NAE        36.4035   40.6167   11.0282 N.pl3       1 GSZ      -0.2497
     16 CAQ        36.0416   40.6929   12.3269 C.2         1 GSZ       0.0236
     17 CAD        36.3600   39.3039   10.7079 C.2         1 GSZ       0.1393
     18 NAO        35.9297   38.5690   11.7472 N.2         1 GSZ      -0.3317
     19 CAP        35.7298   39.4151   12.7722 C.2         1 GSZ      -0.0178
     20 CAR        35.3002   39.0757   14.1466 C.3         1 GSZ      -0.0191
     21 CAS        35.3280   37.5577   14.5272 C.3         1 GSZ      -0.0133
     22 CAT        33.9794   36.9675   14.7529 C.ar        1 GSZ      -0.0416
     23 CAU        33.1760   37.4234   15.8256 C.ar        1 GSZ      -0.0602
     24 CAV        31.9269   36.8334   16.0892 C.ar        1 GSZ      -0.0686
     25 CAW        31.4628   35.7809   15.2843 C.ar        1 GSZ      -0.0687
     26 CAX        32.2438   35.3246   14.2041 C.ar        1 GSZ      -0.0686
     27 CAY        33.4949   35.9091   13.9451 C.ar        1 GSZ      -0.0602
     28 H1         40.6114   34.5495   10.4262 H           1 GSZ       0.0257
     29 H2         40.7313   36.1514   11.1508 H           1 GSZ       0.0257
     30 H3         40.5534   35.9951    9.3931 H           1 GSZ       0.0257
     31 H4         38.4706   35.2552   11.5197 H           1 GSZ       0.0532
     32 H5         36.9543   34.6052    9.6807 H           1 GSZ       0.0257
     33 H6         38.4260   33.6314    9.6483 H           1 GSZ       0.0257
     34 H7         38.2200   34.9523    8.4835 H           1 GSZ       0.0257
     35 H8         37.0919   36.7966    8.8652 H           1 GSZ       0.1888
     36 H9         35.8954   38.6296    8.7925 H           1 GSZ       0.0820
     37 H10        38.7150   39.7628    9.1623 H           1 GSZ       0.0672
     38 H11        37.0759   39.3034    6.8951 H           1 GSZ       0.2103
     39 H12        36.2326   41.1752    8.1269 H           1 GSZ       0.0654
     40 H13        37.6167   42.9083    7.9272 H           1 GSZ       0.2100
     41 H14        37.8186   42.0354   10.5956 H           1 GSZ       0.0699
     42 H15        35.0485   42.6499    9.4706 H           1 GSZ       0.0589
     43 H16        36.4047   43.7650    9.6877 H           1 GSZ       0.0589
     44 H17        36.1317   43.6201   11.8945 H           1 GSZ       0.2095
     45 H18        36.0297   41.5344   12.9053 H           1 GSZ       0.0663
     46 H19        34.3027   39.4977   14.2810 H           1 GSZ       0.0392
     47 H20        35.9598   39.6042   14.8403 H           1 GSZ       0.0392
     48 H21        35.8985   37.4337   15.4573 H           1 GSZ       0.0442
     49 H22        35.8741   36.9840   13.7685 H           1 GSZ       0.0442
     50 H23        33.5037   38.1836   16.4291 H           1 GSZ       0.0557
     51 H24        31.3624   37.1617   16.8773 H           1 GSZ       0.0599
     52 H25        30.5596   35.3449   15.4803 H           1 GSZ       0.0559
     53 H26        31.9091   34.5581   13.6182 H           1 GSZ       0.0599
     54 H27        34.0561   35.5593   13.1653 H           1 GSZ       0.0557
@<TRIPOS>BOND
     1     1     2   1
     2     2     3   1
     3     2     4   1
     4     4     5   2
     5     4     6  am
     6     6     7   1
     7     7     8   1
     8     7    17   1
     9     8     9   1
    10     8    10   1
    11    10    11   1
    12    10    12   1
    13    12    13   1
    14    12    15   1
    15    13    14   1
    16    15    16   1
    17    15    17   1
    18    16    19   2
    19    17    18   2
    20    18    19   1
    21    19    20   1
    22    20    21   1
    23    21    22   1
    24    22    23  ar
    25    22    27  ar
    26    23    24  ar
    27    24    25  ar
    28    25    26  ar
    29    26    27  ar
    30     1    28   1
    31     1    29   1
    32     1    30   1
    33     2    31   1
    34     3    32   1
    35     3    33   1
    36     3    34   1
    37     6    35   1
    38     7    36   1
    39     8    37   1
    40     9    38   1
    41    10    39   1
    42    11    40   1
    43    12    41   1
    44    13    42   1
    45    13    43   1
    46    14    44   1
    47    16    45   1
    48    20    46   1
    49    20    47   1
    50    21    48   1
    51    21    49   1
    52    23    50   1
    53    24    51   1
    54    25    52   1
    55    26    53   1
    56    27    54   1
@<TRIPOS>SUBSTRUCTURE
     1  GSZ      1

