@<TRIPOS>MOLECULE
2j62_ligand_048
    54    56
SMALL
GAST_HUCK
****
This file was generated by PARSER (from files_GN.cpp)

@<TRIPOS>ATOM
      1 CAZ        32.6232   33.6433   16.3185 C.3         1 GSZ      -0.0456
      2 CAN        33.3027   34.6828   15.3894 C.3         1 GSZ       0.0432
      3 CBA        32.4224   35.9582   15.2223 C.3         1 GSZ      -0.0456
      4 CAL        33.6243   34.0974   14.0945 C.2         1 GSZ       0.1811
      5 OAM        32.7136   33.6916   13.3771 O.2         1 GSZ      -0.3966
      6 NAK        34.8946   34.0156   13.6895 N.am        1 GSZ      -0.2638
      7 CAC        35.3574   33.5393   12.4180 C.3         1 GSZ       0.1446
      8 CAB        36.1401   32.2075   12.6088 C.3         1 GSZ       0.1222
      9 OAG        35.2728   31.2073   13.1465 O.3         1 GSZ      -0.3842
     10 CAA        36.7282   31.7286   11.2526 C.3         1 GSZ       0.1176
     11 OAH        37.4656   30.5198   11.4592 O.3         1 GSZ      -0.3858
     12 CAF        37.6280   32.8232   10.5612 C.3         1 GSZ       0.1168
     13 CAI        37.6344   32.5949    9.0092 C.3         1 GSZ       0.0768
     14 OAJ        38.2415   33.6515    8.2601 O.3         1 GSZ      -0.3919
     15 NAE        37.2635   34.1803   10.9442 N.pl3       1 GSZ      -0.2497
     16 CAQ        37.9174   35.3225   10.6456 C.2         1 GSZ       0.0236
     17 CAD        36.2503   34.5300   11.7758 C.2         1 GSZ       0.1393
     18 NAO        36.2033   35.8670   11.9335 N.2         1 GSZ      -0.3317
     19 CAP        37.2297   36.3823   11.2365 C.2         1 GSZ      -0.0178
     20 CAR        37.5135   37.8263   11.0690 C.3         1 GSZ      -0.0191
     21 CAS        38.0754   38.5260   12.3400 C.3         1 GSZ      -0.0133
     22 CAT        37.2412   38.4309   13.5693 C.ar        1 GSZ      -0.0416
     23 CAU        35.8790   38.8255   13.5814 C.ar        1 GSZ      -0.0602
     24 CAV        35.1067   38.7157   14.7519 C.ar        1 GSZ      -0.0686
     25 CAW        35.6889   38.2406   15.9439 C.ar        1 GSZ      -0.0687
     26 CAX        37.0563   37.8941   15.9661 C.ar        1 GSZ      -0.0686
     27 CAY        37.8141   37.9704   14.7844 C.ar        1 GSZ      -0.0602
     28 H1         32.4091   34.0894   17.2949 H           1 GSZ       0.0257
     29 H2         33.2892   32.7836   16.4813 H           1 GSZ       0.0257
     30 H3         31.6842   33.2861   15.8876 H           1 GSZ       0.0257
     31 H4         34.2243   35.0000   15.8914 H           1 GSZ       0.0532
     32 H5         32.9655   36.7021   14.6246 H           1 GSZ       0.0257
     33 H6         32.2016   36.3930   16.1969 H           1 GSZ       0.0257
     34 H7         31.4723   35.7133   14.7311 H           1 GSZ       0.0257
     35 H8         35.5859   34.2854   14.3231 H           1 GSZ       0.1888
     36 H9         34.5333   33.3546   11.7226 H           1 GSZ       0.0820
     37 H10        36.9528   32.3658   13.3191 H           1 GSZ       0.0672
     38 H11        35.8433   30.4211   13.2689 H           1 GSZ       0.2103
     39 H12        35.8713   31.4828   10.6119 H           1 GSZ       0.0654
     40 H13        37.7228   30.2274   10.5569 H           1 GSZ       0.2100
     41 H14        38.6554   32.6797   10.9252 H           1 GSZ       0.0699
     42 H15        36.6076   32.4581    8.6359 H           1 GSZ       0.0589
     43 H16        38.1933   31.6739    8.8053 H           1 GSZ       0.0589
     44 H17        37.5938   34.3919    8.3175 H           1 GSZ       0.2095
     45 H18        38.7708   35.4072   10.0845 H           1 GSZ       0.0663
     46 H19        36.5933   38.3214   10.7534 H           1 GSZ       0.0392
     47 H20        38.2447   37.9567   10.2682 H           1 GSZ       0.0392
     48 H21        38.2025   39.5843   12.1125 H           1 GSZ       0.0442
     49 H22        39.0708   38.1214   12.5192 H           1 GSZ       0.0442
     50 H23        35.4433   39.1898   12.7312 H           1 GSZ       0.0557
     51 H24        34.1071   38.9640   14.7401 H           1 GSZ       0.0599
     52 H25        35.1268   38.1564   16.7892 H           1 GSZ       0.0559
     53 H26        37.4901   37.5757   16.8422 H           1 GSZ       0.0599
     54 H27        38.8027   37.6998   14.8243 H           1 GSZ       0.0557
@<TRIPOS>BOND
     1     1     2   1
     2     2     3   1
     3     2     4   1
     4     4     5   2
     5     4     6  am
     6     6     7   1
     7     7     8   1
     8     7    17   1
     9     8     9   1
    10     8    10   1
    11    10    11   1
    12    10    12   1
    13    12    13   1
    14    12    15   1
    15    13    14   1
    16    15    16   1
    17    15    17   1
    18    16    19   2
    19    17    18   2
    20    18    19   1
    21    19    20   1
    22    20    21   1
    23    21    22   1
    24    22    23  ar
    25    22    27  ar
    26    23    24  ar
    27    24    25  ar
    28    25    26  ar
    29    26    27  ar
    30     1    28   1
    31     1    29   1
    32     1    30   1
    33     2    31   1
    34     3    32   1
    35     3    33   1
    36     3    34   1
    37     6    35   1
    38     7    36   1
    39     8    37   1
    40     9    38   1
    41    10    39   1
    42    11    40   1
    43    12    41   1
    44    13    42   1
    45    13    43   1
    46    14    44   1
    47    16    45   1
    48    20    46   1
    49    20    47   1
    50    21    48   1
    51    21    49   1
    52    23    50   1
    53    24    51   1
    54    25    52   1
    55    26    53   1
    56    27    54   1
@<TRIPOS>SUBSTRUCTURE
     1  GSZ      1

