@<TRIPOS>MOLECULE
2j62_ligand_015
    54    56
SMALL
GAST_HUCK
****
This file was generated by PARSER (from files_GN.cpp)

@<TRIPOS>ATOM
      1 CAZ        36.4285   41.6886    9.7842 C.3         1 GSZ      -0.0456
      2 CAN        37.1817   40.5062    9.1157 C.3         1 GSZ       0.0432
      3 CBA        36.3592   39.9096    7.9375 C.3         1 GSZ      -0.0456
      4 CAL        37.5873   39.5080   10.1063 C.2         1 GSZ       0.1811
      5 OAM        38.7038   39.5944   10.6033 O.2         1 GSZ      -0.3966
      6 NAK        36.7776   38.5150   10.4436 N.am        1 GSZ      -0.2638
      7 CAC        37.0680   37.4045   11.3048 C.3         1 GSZ       0.1446
      8 CAB        36.9780   36.0867   10.4888 C.3         1 GSZ       0.1222
      9 OAG        38.0464   36.0439    9.5454 O.3         1 GSZ      -0.3842
     10 CAA        37.0226   34.8398   11.4188 C.3         1 GSZ       0.1176
     11 OAH        36.9464   33.6433   10.6365 O.3         1 GSZ      -0.3858
     12 CAF        35.8943   34.8684   12.5144 C.3         1 GSZ       0.1168
     13 CAI        36.2812   33.9549   13.7110 C.3         1 GSZ       0.0768
     14 OAJ        35.1537   33.4993   14.4561 O.3         1 GSZ      -0.3919
     15 NAE        35.5632   36.2176   12.9344 N.pl3       1 GSZ      -0.2497
     16 CAQ        34.6296   36.6020   13.8233 C.2         1 GSZ       0.0236
     17 CAD        36.0710   37.3578   12.4020 C.2         1 GSZ       0.1393
     18 NAO        35.4892   38.4412   12.9560 N.2         1 GSZ      -0.3317
     19 CAP        34.5909   37.9940   13.8451 C.2         1 GSZ      -0.0178
     20 CAR        33.6789   38.8493   14.6385 C.3         1 GSZ      -0.0191
     21 CAS        34.3961   39.9761   15.4284 C.3         1 GSZ      -0.0133
     22 CAT        34.7696   41.1418   14.5846 C.ar        1 GSZ      -0.0416
     23 CAU        36.0533   41.2439   13.9928 C.ar        1 GSZ      -0.0602
     24 CAV        36.3656   42.3183   13.1423 C.ar        1 GSZ      -0.0686
     25 CAW        35.4004   43.3015   12.8635 C.ar        1 GSZ      -0.0687
     26 CAX        34.1343   43.2322   13.4730 C.ar        1 GSZ      -0.0686
     27 CAY        33.8245   42.1625   14.3294 C.ar        1 GSZ      -0.0602
     28 H1         36.0719   42.3969    9.0233 H           1 GSZ       0.0257
     29 H2         37.1032   42.2225   10.4539 H           1 GSZ       0.0257
     30 H3         35.5685   41.3328   10.3507 H           1 GSZ       0.0257
     31 H4         38.0883   40.9319    8.6649 H           1 GSZ       0.0532
     32 H5         36.8840   39.0589    7.4980 H           1 GSZ       0.0257
     33 H6         36.2162   40.6625    7.1581 H           1 GSZ       0.0257
     34 H7         35.3746   39.5814    8.2766 H           1 GSZ       0.0257
     35 H8         35.9042   38.5042   10.0303 H           1 GSZ       0.1888
     36 H9         38.0536   37.4828   11.7669 H           1 GSZ       0.0820
     37 H10        36.0346   36.0746    9.9288 H           1 GSZ       0.0672
     38 H11        37.6128   35.8346    8.6918 H           1 GSZ       0.2103
     39 H12        38.0012   34.8378   11.8998 H           1 GSZ       0.0654
     40 H13        36.0719   33.6781   10.1852 H           1 GSZ       0.2100
     41 H14        34.9922   34.4449   12.0634 H           1 GSZ       0.0699
     42 H15        36.9509   34.5025   14.3825 H           1 GSZ       0.0589
     43 H16        36.8065   33.0652   13.3597 H           1 GSZ       0.0589
     44 H17        35.5477   33.1867   15.3227 H           1 GSZ       0.2095
     45 H18        34.0178   35.9944   14.3641 H           1 GSZ       0.0663
     46 H19        33.1336   38.2230   15.3475 H           1 GSZ       0.0392
     47 H20        32.9491   39.2874   13.9524 H           1 GSZ       0.0392
     48 H21        35.2781   39.5565   15.9262 H           1 GSZ       0.0442
     49 H22        33.7198   40.3208   16.2151 H           1 GSZ       0.0442
     50 H23        36.7583   40.5223   14.1594 H           1 GSZ       0.0557
     51 H24        37.2933   42.3747   12.7077 H           1 GSZ       0.0599
     52 H25        35.6160   44.0753   12.2346 H           1 GSZ       0.0559
     53 H26        33.4415   43.9637   13.2873 H           1 GSZ       0.0599
     54 H27        32.8975   42.1316   14.7643 H           1 GSZ       0.0557
@<TRIPOS>BOND
     1     1     2   1
     2     2     3   1
     3     2     4   1
     4     4     5   2
     5     4     6  am
     6     6     7   1
     7     7     8   1
     8     7    17   1
     9     8     9   1
    10     8    10   1
    11    10    11   1
    12    10    12   1
    13    12    13   1
    14    12    15   1
    15    13    14   1
    16    15    16   1
    17    15    17   1
    18    16    19   2
    19    17    18   2
    20    18    19   1
    21    19    20   1
    22    20    21   1
    23    21    22   1
    24    22    23  ar
    25    22    27  ar
    26    23    24  ar
    27    24    25  ar
    28    25    26  ar
    29    26    27  ar
    30     1    28   1
    31     1    29   1
    32     1    30   1
    33     2    31   1
    34     3    32   1
    35     3    33   1
    36     3    34   1
    37     6    35   1
    38     7    36   1
    39     8    37   1
    40     9    38   1
    41    10    39   1
    42    11    40   1
    43    12    41   1
    44    13    42   1
    45    13    43   1
    46    14    44   1
    47    16    45   1
    48    20    46   1
    49    20    47   1
    50    21    48   1
    51    21    49   1
    52    23    50   1
    53    24    51   1
    54    25    52   1
    55    26    53   1
    56    27    54   1
@<TRIPOS>SUBSTRUCTURE
     1  GSZ      1

