@<TRIPOS>MOLECULE
2j62_ligand_045
    54    56
SMALL
GAST_HUCK
****
This file was generated by PARSER (from files_GN.cpp)

@<TRIPOS>ATOM
      1 CAZ        32.2164   31.3522   15.9052 C.3         1 GSZ      -0.0456
      2 CAN        33.6375   31.3073   15.2838 C.3         1 GSZ       0.0432
      3 CBA        34.7465   31.2379   16.3688 C.3         1 GSZ      -0.0456
      4 CAL        33.8484   32.4237   14.3652 C.2         1 GSZ       0.1811
      5 OAM        34.1516   32.1827   13.2002 O.2         1 GSZ      -0.3966
      6 NAK        33.6795   33.6776   14.7748 N.am        1 GSZ      -0.2638
      7 CAC        33.8653   34.8808   14.0051 C.3         1 GSZ       0.1446
      8 CAB        35.3545   35.0691   13.5842 C.3         1 GSZ       0.1222
      9 OAG        35.6930   34.1528   12.5513 O.3         1 GSZ      -0.3842
     10 CAA        35.6548   36.5039   13.0838 C.3         1 GSZ       0.1176
     11 OAH        37.0359   36.5963   12.7239 O.3         1 GSZ      -0.3858
     12 CAF        35.2761   37.5840   14.1615 C.3         1 GSZ       0.1168
     13 CAI        35.1622   38.9911   13.4869 C.3         1 GSZ       0.0768
     14 OAJ        35.2670   40.0626   14.4325 O.3         1 GSZ      -0.3919
     15 NAE        34.0635   37.2315   14.8750 N.pl3       1 GSZ      -0.2497
     16 CAQ        33.3871   37.9847   15.7720 C.2         1 GSZ       0.0236
     17 CAD        33.4071   36.0505   14.7902 C.2         1 GSZ       0.1393
     18 NAO        32.2980   36.0857   15.5522 N.2         1 GSZ      -0.3317
     19 CAP        32.2551   37.2769   16.1704 C.2         1 GSZ      -0.0178
     20 CAR        31.1921   37.6345   17.1364 C.3         1 GSZ      -0.0191
     21 CAS        31.3603   38.9584   17.9421 C.3         1 GSZ      -0.0133
     22 CAT        30.9142   40.1915   17.2282 C.ar        1 GSZ      -0.0416
     23 CAU        29.5423   40.5408   17.1964 C.ar        1 GSZ      -0.0602
     24 CAV        29.1117   41.7339   16.5894 C.ar        1 GSZ      -0.0686
     25 CAW        30.0534   42.6040   16.0073 C.ar        1 GSZ      -0.0687
     26 CAX        31.4185   42.2691   16.0216 C.ar        1 GSZ      -0.0686
     27 CAY        31.8475   41.0812   16.6426 C.ar        1 GSZ      -0.0602
     28 H1         32.0551   30.4694   16.5249 H           1 GSZ       0.0257
     29 H2         31.4563   31.3598   15.1199 H           1 GSZ       0.0257
     30 H3         32.0895   32.2408   16.5261 H           1 GSZ       0.0257
     31 H4         33.6991   30.3747   14.7154 H           1 GSZ       0.0532
     32 H5         35.7351   31.1932   15.9020 H           1 GSZ       0.0257
     33 H6         34.6170   30.3404   16.9763 H           1 GSZ       0.0257
     34 H7         34.7024   32.1109   17.0251 H           1 GSZ       0.0257
     35 H8         33.3716   33.8040   15.6884 H           1 GSZ       0.1888
     36 H9         33.2226   34.8532   13.1207 H           1 GSZ       0.0820
     37 H10        36.0031   34.8653   14.4402 H           1 GSZ       0.0672
     38 H11        35.0108   34.2796   11.8573 H           1 GSZ       0.2103
     39 H12        35.0641   36.6777   12.1791 H           1 GSZ       0.0654
     40 H13        37.1079   37.3483   12.0923 H           1 GSZ       0.2100
     41 H14        36.0863   37.6261   14.9026 H           1 GSZ       0.0699
     42 H15        34.1988   39.0757   12.9744 H           1 GSZ       0.0589
     43 H16        35.9567   39.1344   12.7444 H           1 GSZ       0.0589
     44 H17        36.1598   39.9513   14.8304 H           1 GSZ       0.2095
     45 H18        33.6543   38.9142   16.1043 H           1 GSZ       0.0663
     46 H19        31.1489   36.8203   17.8620 H           1 GSZ       0.0392
     47 H20        30.2400   37.6423   16.6020 H           1 GSZ       0.0392
     48 H21        32.4031   39.0525   18.2711 H           1 GSZ       0.0442
     49 H22        30.7637   38.8781   18.8583 H           1 GSZ       0.0442
     50 H23        28.8469   39.9287   17.6267 H           1 GSZ       0.0557
     51 H24        28.1201   41.9750   16.5777 H           1 GSZ       0.0599
     52 H25        29.7434   43.4792   15.5743 H           1 GSZ       0.0559
     53 H26        32.1045   42.8980   15.5885 H           1 GSZ       0.0599
     54 H27        32.8472   40.8742   16.6572 H           1 GSZ       0.0557
@<TRIPOS>BOND
     1     1     2   1
     2     2     3   1
     3     2     4   1
     4     4     5   2
     5     4     6  am
     6     6     7   1
     7     7     8   1
     8     7    17   1
     9     8     9   1
    10     8    10   1
    11    10    11   1
    12    10    12   1
    13    12    13   1
    14    12    15   1
    15    13    14   1
    16    15    16   1
    17    15    17   1
    18    16    19   2
    19    17    18   2
    20    18    19   1
    21    19    20   1
    22    20    21   1
    23    21    22   1
    24    22    23  ar
    25    22    27  ar
    26    23    24  ar
    27    24    25  ar
    28    25    26  ar
    29    26    27  ar
    30     1    28   1
    31     1    29   1
    32     1    30   1
    33     2    31   1
    34     3    32   1
    35     3    33   1
    36     3    34   1
    37     6    35   1
    38     7    36   1
    39     8    37   1
    40     9    38   1
    41    10    39   1
    42    11    40   1
    43    12    41   1
    44    13    42   1
    45    13    43   1
    46    14    44   1
    47    16    45   1
    48    20    46   1
    49    20    47   1
    50    21    48   1
    51    21    49   1
    52    23    50   1
    53    24    51   1
    54    25    52   1
    55    26    53   1
    56    27    54   1
@<TRIPOS>SUBSTRUCTURE
     1  GSZ      1

