@<TRIPOS>MOLECULE
2j62_ligand_004
    54    56
SMALL
GAST_HUCK
****
This file was generated by PARSER (from files_GN.cpp)

@<TRIPOS>ATOM
      1 CAZ        36.5695   39.9748   12.3661 C.3         1 GSZ      -0.0456
      2 CAN        35.5829   40.4671   13.4604 C.3         1 GSZ       0.0432
      3 CBA        36.0122   41.8676   13.9905 C.3         1 GSZ      -0.0456
      4 CAL        35.4229   39.4513   14.5065 C.2         1 GSZ       0.1811
      5 OAM        35.8152   39.6697   15.6499 O.2         1 GSZ      -0.3966
      6 NAK        34.8103   38.3038   14.2182 N.am        1 GSZ      -0.2638
      7 CAC        34.5260   37.2245   15.1294 C.3         1 GSZ       0.1446
      8 CAB        34.8015   35.8484   14.4550 C.3         1 GSZ       0.1222
      9 OAG        36.1942   35.6803   14.1994 O.3         1 GSZ      -0.3842
     10 CAA        34.2382   34.7090   15.3511 C.3         1 GSZ       0.1176
     11 OAH        34.5897   33.4305   14.8027 O.3         1 GSZ      -0.3858
     12 CAF        32.6840   34.8441   15.5260 C.3         1 GSZ       0.1168
     13 CAI        32.1410   33.9784   16.7149 C.3         1 GSZ       0.0768
     14 OAJ        33.0214   32.9595   17.1845 O.3         1 GSZ      -0.3919
     15 NAE        32.2903   36.2308   15.6668 N.pl3       1 GSZ      -0.2497
     16 CAQ        31.0646   36.7154   15.9388 C.2         1 GSZ       0.0236
     17 CAD        33.1068   37.3019   15.5404 C.2         1 GSZ       0.1393
     18 NAO        32.4385   38.4354   15.8178 N.2         1 GSZ      -0.3317
     19 CAP        31.1607   38.0999   16.0500 C.2         1 GSZ      -0.0178
     20 CAR        30.1048   39.0814   16.3688 C.3         1 GSZ      -0.0191
     21 CAS        29.9284   40.1615   15.2579 C.3         1 GSZ      -0.0133
     22 CAT        29.4912   41.4723   15.8136 C.ar        1 GSZ      -0.0416
     23 CAU        28.1624   41.6564   16.2682 C.ar        1 GSZ      -0.0602
     24 CAV        27.7592   42.8826   16.8309 C.ar        1 GSZ      -0.0686
     25 CAW        28.6811   43.9377   16.9592 C.ar        1 GSZ      -0.0687
     26 CAX        30.0037   43.7701   16.5187 C.ar        1 GSZ      -0.0686
     27 CAY        30.4044   42.5463   15.9469 C.ar        1 GSZ      -0.0602
     28 H1         36.6498   40.7160   11.5683 H           1 GSZ       0.0257
     29 H2         36.2185   39.0427   11.9204 H           1 GSZ       0.0257
     30 H3         37.5608   39.8089   12.7921 H           1 GSZ       0.0257
     31 H4         34.6015   40.6057   12.9859 H           1 GSZ       0.0532
     32 H5         35.2960   42.2212   14.7366 H           1 GSZ       0.0257
     33 H6         36.0422   42.5962   13.1814 H           1 GSZ       0.0257
     34 H7         36.9989   41.8180   14.4531 H           1 GSZ       0.0257
     35 H8         34.4606   38.2173   13.3140 H           1 GSZ       0.1888
     36 H9         35.1401   37.3016   16.0354 H           1 GSZ       0.0820
     37 H10        34.2926   35.8068   13.4878 H           1 GSZ       0.0672
     38 H11        36.6132   35.6641   15.0805 H           1 GSZ       0.2103
     39 H12        34.7135   34.7905   16.3376 H           1 GSZ       0.0654
     40 H13        35.4404   33.1887   15.2512 H           1 GSZ       0.2100
     41 H14        32.2236   34.4808   14.6039 H           1 GSZ       0.0699
     42 H15        31.1994   33.5056   16.4276 H           1 GSZ       0.0589
     43 H16        31.9429   34.6051   17.5828 H           1 GSZ       0.0589
     44 H17        33.1257   32.3227   16.4232 H           1 GSZ       0.2095
     45 H18        30.2093   36.1693   16.0642 H           1 GSZ       0.0663
     46 H19        30.3854   39.5453   17.3163 H           1 GSZ       0.0392
     47 H20        29.1566   38.5654   16.5203 H           1 GSZ       0.0392
     48 H21        29.1989   39.8155   14.5213 H           1 GSZ       0.0442
     49 H22        30.8655   40.3048   14.7096 H           1 GSZ       0.0442
     50 H23        27.4839   40.8936   16.1954 H           1 GSZ       0.0557
     51 H24        26.7953   43.0021   17.1553 H           1 GSZ       0.0599
     52 H25        28.3903   44.8250   17.3702 H           1 GSZ       0.0559
     53 H26        30.6791   44.5305   16.6196 H           1 GSZ       0.0599
     54 H27        31.3793   42.4407   15.6455 H           1 GSZ       0.0557
@<TRIPOS>BOND
     1     1     2   1
     2     2     3   1
     3     2     4   1
     4     4     5   2
     5     4     6  am
     6     6     7   1
     7     7     8   1
     8     7    17   1
     9     8     9   1
    10     8    10   1
    11    10    11   1
    12    10    12   1
    13    12    13   1
    14    12    15   1
    15    13    14   1
    16    15    16   1
    17    15    17   1
    18    16    19   2
    19    17    18   2
    20    18    19   1
    21    19    20   1
    22    20    21   1
    23    21    22   1
    24    22    23  ar
    25    22    27  ar
    26    23    24  ar
    27    24    25  ar
    28    25    26  ar
    29    26    27  ar
    30     1    28   1
    31     1    29   1
    32     1    30   1
    33     2    31   1
    34     3    32   1
    35     3    33   1
    36     3    34   1
    37     6    35   1
    38     7    36   1
    39     8    37   1
    40     9    38   1
    41    10    39   1
    42    11    40   1
    43    12    41   1
    44    13    42   1
    45    13    43   1
    46    14    44   1
    47    16    45   1
    48    20    46   1
    49    20    47   1
    50    21    48   1
    51    21    49   1
    52    23    50   1
    53    24    51   1
    54    25    52   1
    55    26    53   1
    56    27    54   1
@<TRIPOS>SUBSTRUCTURE
     1  GSZ      1

