@<TRIPOS>MOLECULE
2j62_ligand_018
    54    56
SMALL
GAST_HUCK
****
This file was generated by PARSER (from files_GN.cpp)

@<TRIPOS>ATOM
      1 CAZ        31.5024   40.7729   17.2724 C.3         1 GSZ      -0.0456
      2 CAN        31.7436   39.7234   16.1522 C.3         1 GSZ       0.0432
      3 CBA        31.7590   38.2767   16.7217 C.3         1 GSZ      -0.0456
      4 CAL        32.9293   40.0804   15.3696 C.2         1 GSZ       0.1811
      5 OAM        32.7954   40.9323   14.5000 O.2         1 GSZ      -0.3966
      6 NAK        34.1331   39.6031   15.6717 N.am        1 GSZ      -0.2638
      7 CAC        35.4222   39.8675   15.0869 C.3         1 GSZ       0.1446
      8 CAB        35.7929   41.3648   14.8006 C.3         1 GSZ       0.1222
      9 OAG        37.0465   41.6947   15.4096 O.3         1 GSZ      -0.3842
     10 CAA        35.8333   41.7827   13.2927 C.3         1 GSZ       0.1176
     11 OAH        34.5225   42.0915   12.8202 O.3         1 GSZ      -0.3858
     12 CAF        36.4743   40.7179   12.3305 C.3         1 GSZ       0.1168
     13 CAI        38.0031   40.9537   12.1215 C.3         1 GSZ       0.0768
     14 OAJ        38.2509   41.9936   11.1722 O.3         1 GSZ      -0.3919
     15 NAE        36.1932   39.3642   12.7450 N.pl3       1 GSZ      -0.2497
     16 CAQ        36.3914   38.2397   12.0259 C.2         1 GSZ       0.0236
     17 CAD        35.7044   38.9791   13.9393 C.2         1 GSZ       0.1393
     18 NAO        35.6239   37.6335   13.9925 N.2         1 GSZ      -0.3317
     19 CAP        36.0484   37.1443   12.8131 C.2         1 GSZ      -0.0178
     20 CAR        36.1852   35.7222   12.4135 C.3         1 GSZ      -0.0191
     21 CAS        35.8058   34.6437   13.4843 C.3         1 GSZ      -0.0133
     22 CAT        34.6442   33.7977   13.0903 C.ar        1 GSZ      -0.0416
     23 CAU        33.3396   34.0918   13.5558 C.ar        1 GSZ      -0.0602
     24 CAV        32.2438   33.2953   13.1694 C.ar        1 GSZ      -0.0686
     25 CAW        32.4373   32.1975   12.3097 C.ar        1 GSZ      -0.0687
     26 CAX        33.7264   31.8965   11.8378 C.ar        1 GSZ      -0.0686
     27 CAY        34.8216   32.6949   12.2242 C.ar        1 GSZ      -0.0602
     28 H1         30.5799   40.5498   17.8111 H           1 GSZ       0.0257
     29 H2         31.4092   41.7749   16.8457 H           1 GSZ       0.0257
     30 H3         32.3296   40.7750   17.9867 H           1 GSZ       0.0257
     31 H4         30.8745   39.7681   15.4832 H           1 GSZ       0.0532
     32 H5         31.9914   37.5580   15.9320 H           1 GSZ       0.0257
     33 H6         30.7812   38.0219   17.1370 H           1 GSZ       0.0257
     34 H7         32.5000   38.1748   17.5180 H           1 GSZ       0.0257
     35 H8         34.1470   38.9669   16.3944 H           1 GSZ       0.1888
     36 H9         36.1149   39.5236   15.8603 H           1 GSZ       0.0820
     37 H10        35.0750   42.0107   15.3047 H           1 GSZ       0.0672
     38 H11        37.7057   41.0308   15.1066 H           1 GSZ       0.2103
     39 H12        36.3727   42.7289   13.2165 H           1 GSZ       0.0654
     40 H13        34.0465   41.2304   12.8063 H           1 GSZ       0.2100
     41 H14        36.0108   40.8376   11.3426 H           1 GSZ       0.0699
     42 H15        38.4820   40.0556   11.7302 H           1 GSZ       0.0589
     43 H16        38.4900   41.2071   13.0637 H           1 GSZ       0.0589
     44 H17        37.8719   42.8171   11.5499 H           1 GSZ       0.2095
     45 H18        36.7629   38.1946   11.0747 H           1 GSZ       0.0663
     46 H19        37.2289   35.5661   12.1297 H           1 GSZ       0.0392
     47 H20        35.5974   35.5831   11.5043 H           1 GSZ       0.0392
     48 H21        35.5930   35.0937   14.4567 H           1 GSZ       0.0442
     49 H22        36.6723   33.9986   13.6568 H           1 GSZ       0.0442
     50 H23        33.1766   34.8933   14.1704 H           1 GSZ       0.0557
     51 H24        31.3043   33.5135   13.5090 H           1 GSZ       0.0599
     52 H25        31.6414   31.6206   12.0265 H           1 GSZ       0.0559
     53 H26        33.8696   31.1002   11.2139 H           1 GSZ       0.0599
     54 H27        35.7508   32.4630   11.8637 H           1 GSZ       0.0557
@<TRIPOS>BOND
     1     1     2   1
     2     2     3   1
     3     2     4   1
     4     4     5   2
     5     4     6  am
     6     6     7   1
     7     7     8   1
     8     7    17   1
     9     8     9   1
    10     8    10   1
    11    10    11   1
    12    10    12   1
    13    12    13   1
    14    12    15   1
    15    13    14   1
    16    15    16   1
    17    15    17   1
    18    16    19   2
    19    17    18   2
    20    18    19   1
    21    19    20   1
    22    20    21   1
    23    21    22   1
    24    22    23  ar
    25    22    27  ar
    26    23    24  ar
    27    24    25  ar
    28    25    26  ar
    29    26    27  ar
    30     1    28   1
    31     1    29   1
    32     1    30   1
    33     2    31   1
    34     3    32   1
    35     3    33   1
    36     3    34   1
    37     6    35   1
    38     7    36   1
    39     8    37   1
    40     9    38   1
    41    10    39   1
    42    11    40   1
    43    12    41   1
    44    13    42   1
    45    13    43   1
    46    14    44   1
    47    16    45   1
    48    20    46   1
    49    20    47   1
    50    21    48   1
    51    21    49   1
    52    23    50   1
    53    24    51   1
    54    25    52   1
    55    26    53   1
    56    27    54   1
@<TRIPOS>SUBSTRUCTURE
     1  GSZ      1

