@<TRIPOS>MOLECULE
2j62_ligand_024
    54    56
SMALL
GAST_HUCK
****
This file was generated by PARSER (from files_GN.cpp)

@<TRIPOS>ATOM
      1 CAZ        36.4541   31.3850   12.1978 C.3         1 GSZ      -0.0456
      2 CAN        35.5372   30.8699   13.3431 C.3         1 GSZ       0.0432
      3 CBA        34.7517   29.6003   12.9192 C.3         1 GSZ      -0.0456
      4 CAL        34.6313   31.9196   13.8026 C.2         1 GSZ       0.1811
      5 OAM        33.5931   32.1403   13.1853 O.2         1 GSZ      -0.3966
      6 NAK        34.9210   32.6232   14.9006 N.am        1 GSZ      -0.2638
      7 CAC        34.1238   33.6244   15.5419 C.3         1 GSZ       0.1446
      8 CAB        32.6090   33.2501   15.6580 C.3         1 GSZ       0.1222
      9 OAG        32.4720   32.0632   16.4415 O.3         1 GSZ      -0.3842
     10 CAA        31.8079   34.4165   16.3153 C.3         1 GSZ       0.1176
     11 OAH        30.4092   34.1101   16.3708 O.3         1 GSZ      -0.3858
     12 CAF        32.0018   35.7776   15.5575 C.3         1 GSZ       0.1168
     13 CAI        31.5533   36.9819   16.4554 C.3         1 GSZ       0.0768
     14 OAJ        30.2666   37.4618   16.0767 O.3         1 GSZ      -0.3919
     15 NAE        33.3360   35.9221   15.0081 N.pl3       1 GSZ      -0.2497
     16 CAQ        33.8124   36.9759   14.3212 C.2         1 GSZ       0.0236
     17 CAD        34.2926   34.9792   14.9578 C.2         1 GSZ       0.1393
     18 NAO        35.3824   35.4436   14.3048 N.2         1 GSZ      -0.3317
     19 CAP        35.1095   36.6938   13.9113 C.2         1 GSZ      -0.0178
     20 CAR        36.0089   37.5611   13.1156 C.3         1 GSZ      -0.0191
     21 CAS        35.7795   39.0923   13.3277 C.3         1 GSZ      -0.0133
     22 CAT        36.6923   39.9705   12.5415 C.ar        1 GSZ      -0.0416
     23 CAU        36.1752   40.9940   11.7127 C.ar        1 GSZ      -0.0602
     24 CAV        37.0377   41.8679   11.0260 C.ar        1 GSZ      -0.0686
     25 CAW        38.4292   41.7390   11.1629 C.ar        1 GSZ      -0.0687
     26 CAX        38.9569   40.7190   11.9774 C.ar        1 GSZ      -0.0686
     27 CAY        38.0951   39.8430   12.6657 C.ar        1 GSZ      -0.0602
     28 H1         37.1780   30.6150   11.9228 H           1 GSZ       0.0257
     29 H2         37.0025   32.2725   12.5200 H           1 GSZ       0.0257
     30 H3         35.8616   31.6369   11.3154 H           1 GSZ       0.0257
     31 H4         36.1942   30.5729   14.1658 H           1 GSZ       0.0532
     32 H5         34.1242   29.2442   13.7453 H           1 GSZ       0.0257
     33 H6         35.4465   28.7981   12.6482 H           1 GSZ       0.0257
     34 H7         34.1114   29.8119   12.0562 H           1 GSZ       0.0257
     35 H8         35.7753   32.4507   15.3179 H           1 GSZ       0.1888
     36 H9         34.5143   33.7019   16.5625 H           1 GSZ       0.0820
     37 H10        32.1969   33.0553   14.6581 H           1 GSZ       0.0672
     38 H11        31.5971   31.6900   16.1977 H           1 GSZ       0.2103
     39 H12        32.1721   34.5149   17.3453 H           1 GSZ       0.0654
     40 H13        30.3250   33.3715   17.0104 H           1 GSZ       0.2100
     41 H14        31.3520   35.7476   14.6774 H           1 GSZ       0.0699
     42 H15        32.2473   37.8160   16.3908 H           1 GSZ       0.0589
     43 H16        31.4917   36.7063   17.5083 H           1 GSZ       0.0589
     44 H17        30.4194   37.9078   15.2170 H           1 GSZ       0.2095
     45 H18        33.3091   37.8470   14.1250 H           1 GSZ       0.0663
     46 H19        35.8575   37.3214   12.0560 H           1 GSZ       0.0392
     47 H20        37.0499   37.3145   13.3702 H           1 GSZ       0.0392
     48 H21        35.9019   39.3271   14.3942 H           1 GSZ       0.0442
     49 H22        34.7392   39.3155   13.0718 H           1 GSZ       0.0442
     50 H23        35.1658   41.1217   11.6050 H           1 GSZ       0.0557
     51 H24        36.6531   42.6093   10.4312 H           1 GSZ       0.0599
     52 H25        39.0555   42.3801   10.6828 H           1 GSZ       0.0559
     53 H26        39.9704   40.6178   12.0794 H           1 GSZ       0.0599
     54 H27        38.4961   39.1241   13.2714 H           1 GSZ       0.0557
@<TRIPOS>BOND
     1     1     2   1
     2     2     3   1
     3     2     4   1
     4     4     5   2
     5     4     6  am
     6     6     7   1
     7     7     8   1
     8     7    17   1
     9     8     9   1
    10     8    10   1
    11    10    11   1
    12    10    12   1
    13    12    13   1
    14    12    15   1
    15    13    14   1
    16    15    16   1
    17    15    17   1
    18    16    19   2
    19    17    18   2
    20    18    19   1
    21    19    20   1
    22    20    21   1
    23    21    22   1
    24    22    23  ar
    25    22    27  ar
    26    23    24  ar
    27    24    25  ar
    28    25    26  ar
    29    26    27  ar
    30     1    28   1
    31     1    29   1
    32     1    30   1
    33     2    31   1
    34     3    32   1
    35     3    33   1
    36     3    34   1
    37     6    35   1
    38     7    36   1
    39     8    37   1
    40     9    38   1
    41    10    39   1
    42    11    40   1
    43    12    41   1
    44    13    42   1
    45    13    43   1
    46    14    44   1
    47    16    45   1
    48    20    46   1
    49    20    47   1
    50    21    48   1
    51    21    49   1
    52    23    50   1
    53    24    51   1
    54    25    52   1
    55    26    53   1
    56    27    54   1
@<TRIPOS>SUBSTRUCTURE
     1  GSZ      1

