@<TRIPOS>MOLECULE
2j62_ligand_043
    54    56
SMALL
GAST_HUCK
****
This file was generated by PARSER (from files_GN.cpp)

@<TRIPOS>ATOM
      1 CAZ        29.9161   37.9735   16.2635 C.3         1 GSZ      -0.0456
      2 CAN        29.8037   39.5212   16.3160 C.3         1 GSZ       0.0432
      3 CBA        28.9539   40.0777   15.1414 C.3         1 GSZ      -0.0456
      4 CAL        31.1225   40.1373   16.3564 C.2         1 GSZ       0.1811
      5 OAM        31.4345   40.8025   17.3333 O.2         1 GSZ      -0.3966
      6 NAK        31.9484   39.9941   15.3281 N.am        1 GSZ      -0.2638
      7 CAC        33.2757   40.4986   15.1882 C.3         1 GSZ       0.1446
      8 CAB        33.2740   41.8137   14.3543 C.3         1 GSZ       0.1222
      9 OAG        32.5631   42.8457   15.0405 O.3         1 GSZ      -0.3842
     10 CAA        34.7275   42.2486   14.0212 C.3         1 GSZ       0.1176
     11 OAH        34.7003   43.4762   13.2841 O.3         1 GSZ      -0.3858
     12 CAF        35.4978   41.1346   13.2271 C.3         1 GSZ       0.1168
     13 CAI        37.0431   41.3257   13.3072 C.3         1 GSZ       0.0768
     14 OAJ        37.4537   42.6709   13.5744 O.3         1 GSZ      -0.3919
     15 NAE        35.1263   39.8028   13.6541 N.pl3       1 GSZ      -0.2497
     16 CAQ        35.6620   38.6319   13.2597 C.2         1 GSZ       0.0236
     17 CAD        34.1431   39.4958   14.5288 C.2         1 GSZ       0.1393
     18 NAO        34.0948   38.1679   14.7335 N.2         1 GSZ      -0.3317
     19 CAP        35.0196   37.6028   13.9412 C.2         1 GSZ      -0.0178
     20 CAR        35.3833   36.1704   13.8861 C.3         1 GSZ      -0.0191
     21 CAS        34.2381   35.1956   14.2872 C.3         1 GSZ      -0.0133
     22 CAT        34.6885   33.8070   14.5993 C.ar        1 GSZ      -0.0416
     23 CAU        34.3040   33.1755   15.8108 C.ar        1 GSZ      -0.0602
     24 CAV        34.6875   31.8514   16.0973 C.ar        1 GSZ      -0.0686
     25 CAW        35.4810   31.1395   15.1828 C.ar        1 GSZ      -0.0687
     26 CAX        35.8716   31.7447   13.9753 C.ar        1 GSZ      -0.0686
     27 CAY        35.4712   33.0645   13.6782 C.ar        1 GSZ      -0.0602
     28 H1         28.9233   37.5190   16.2560 H           1 GSZ       0.0257
     29 H2         30.4525   37.6023   17.1418 H           1 GSZ       0.0257
     30 H3         30.4498   37.6388   15.3697 H           1 GSZ       0.0257
     31 H4         29.2558   39.7591   17.2303 H           1 GSZ       0.0532
     32 H5         28.8937   41.1692   15.1983 H           1 GSZ       0.0257
     33 H6         27.9365   39.6789   15.1809 H           1 GSZ       0.0257
     34 H7         29.3899   39.8056   14.1735 H           1 GSZ       0.0257
     35 H8         31.6246   39.4717   14.5823 H           1 GSZ       0.1888
     36 H9         33.7123   40.6947   16.1720 H           1 GSZ       0.0820
     37 H10        32.7514   41.6249   13.4115 H           1 GSZ       0.0672
     38 H11        32.3772   42.4972   15.9393 H           1 GSZ       0.2103
     39 H12        35.2469   42.4382   14.9658 H           1 GSZ       0.0654
     40 H13        34.4207   43.2278   12.3761 H           1 GSZ       0.2100
     41 H14        35.2072   41.2248   12.1803 H           1 GSZ       0.0699
     42 H15        37.5087   41.0263   12.3550 H           1 GSZ       0.0589
     43 H16        37.4543   40.7008   14.1082 H           1 GSZ       0.0589
     44 H17        37.3641   43.1754   12.7354 H           1 GSZ       0.2095
     45 H18        36.4429   38.5141   12.6102 H           1 GSZ       0.0663
     46 H19        36.2431   36.0303   14.5440 H           1 GSZ       0.0392
     47 H20        35.6906   35.9409   12.8658 H           1 GSZ       0.0392
     48 H21        33.5221   35.1428   13.4629 H           1 GSZ       0.0442
     49 H22        33.7041   35.6073   15.1468 H           1 GSZ       0.0442
     50 H23        33.7328   33.6755   16.4947 H           1 GSZ       0.0557
     51 H24        34.3851   31.4159   16.9746 H           1 GSZ       0.0599
     52 H25        35.7621   30.1839   15.3943 H           1 GSZ       0.0559
     53 H26        36.4444   31.2219   13.3097 H           1 GSZ       0.0599
     54 H27        35.7483   33.4833   12.7823 H           1 GSZ       0.0557
@<TRIPOS>BOND
     1     1     2   1
     2     2     3   1
     3     2     4   1
     4     4     5   2
     5     4     6  am
     6     6     7   1
     7     7     8   1
     8     7    17   1
     9     8     9   1
    10     8    10   1
    11    10    11   1
    12    10    12   1
    13    12    13   1
    14    12    15   1
    15    13    14   1
    16    15    16   1
    17    15    17   1
    18    16    19   2
    19    17    18   2
    20    18    19   1
    21    19    20   1
    22    20    21   1
    23    21    22   1
    24    22    23  ar
    25    22    27  ar
    26    23    24  ar
    27    24    25  ar
    28    25    26  ar
    29    26    27  ar
    30     1    28   1
    31     1    29   1
    32     1    30   1
    33     2    31   1
    34     3    32   1
    35     3    33   1
    36     3    34   1
    37     6    35   1
    38     7    36   1
    39     8    37   1
    40     9    38   1
    41    10    39   1
    42    11    40   1
    43    12    41   1
    44    13    42   1
    45    13    43   1
    46    14    44   1
    47    16    45   1
    48    20    46   1
    49    20    47   1
    50    21    48   1
    51    21    49   1
    52    23    50   1
    53    24    51   1
    54    25    52   1
    55    26    53   1
    56    27    54   1
@<TRIPOS>SUBSTRUCTURE
     1  GSZ      1

