@<TRIPOS>MOLECULE
2j62_ligand_047
    54    56
SMALL
GAST_HUCK
****
This file was generated by PARSER (from files_GN.cpp)

@<TRIPOS>ATOM
      1 CAZ        37.3451   41.1092    5.1081 C.3         1 GSZ      -0.0456
      2 CAN        36.6462   41.7697    6.3307 C.3         1 GSZ       0.0432
      3 CBA        37.3119   43.1310    6.6933 C.3         1 GSZ      -0.0456
      4 CAL        36.5964   40.8317    7.4478 C.2         1 GSZ       0.1811
      5 OAM        35.6194   40.0938    7.5710 O.2         1 GSZ      -0.3966
      6 NAK        37.6308   40.7103    8.2776 N.am        1 GSZ      -0.2638
      7 CAC        37.7960   39.7857    9.3610 C.3         1 GSZ       0.1446
      8 CAB        37.7290   38.2981    8.8792 C.3         1 GSZ       0.1222
      9 OAG        38.8113   38.0323    7.9787 O.3         1 GSZ      -0.3842
     10 CAA        37.8219   37.3191   10.0828 C.3         1 GSZ       0.1176
     11 OAH        37.8262   35.9640    9.6399 O.3         1 GSZ      -0.3858
     12 CAF        36.6600   37.5826   11.0904 C.3         1 GSZ       0.1168
     13 CAI        36.9763   36.8855   12.4517 C.3         1 GSZ       0.0768
     14 OAJ        38.0994   37.4865   13.1028 O.3         1 GSZ      -0.3919
     15 NAE        36.3861   38.9943   11.2497 N.pl3       1 GSZ      -0.2497
     16 CAQ        35.5676   39.5580   12.1516 C.2         1 GSZ       0.0236
     17 CAD        36.8895   40.0061   10.5079 C.2         1 GSZ       0.1393
     18 NAO        36.4789   41.1910   10.9923 N.2         1 GSZ      -0.3317
     19 CAP        35.6685   40.9388   12.0363 C.2         1 GSZ      -0.0178
     20 CAR        34.9867   41.9240   12.9075 C.3         1 GSZ      -0.0191
     21 CAS        35.4059   41.8594   14.4066 C.3         1 GSZ      -0.0133
     22 CAT        35.3384   40.4971   15.0069 C.ar        1 GSZ      -0.0416
     23 CAU        34.0921   39.8562   15.2121 C.ar        1 GSZ      -0.0602
     24 CAV        34.0362   38.5148   15.6440 C.ar        1 GSZ      -0.0686
     25 CAW        35.2234   37.8087   15.8972 C.ar        1 GSZ      -0.0687
     26 CAX        36.4660   38.4426   15.7485 C.ar        1 GSZ      -0.0686
     27 CAY        36.5221   39.7797   15.3120 C.ar        1 GSZ      -0.0602
     28 H1         37.3381   41.7914    4.2547 H           1 GSZ       0.0257
     29 H2         36.8134   40.1980    4.8196 H           1 GSZ       0.0257
     30 H3         38.3798   40.8523    5.3432 H           1 GSZ       0.0257
     31 H4         35.6199   42.0024    6.0148 H           1 GSZ       0.0532
     32 H5         36.8604   43.5544    7.5928 H           1 GSZ       0.0257
     33 H6         37.1727   43.8409    5.8741 H           1 GSZ       0.0257
     34 H7         38.3851   43.0089    6.8652 H           1 GSZ       0.0257
     35 H8         38.3739   41.3127    8.1133 H           1 GSZ       0.1888
     36 H9         38.8005   39.9642    9.7481 H           1 GSZ       0.0820
     37 H10        36.7831   38.1290    8.3414 H           1 GSZ       0.0672
     38 H11        38.4226   37.4426    7.2811 H           1 GSZ       0.2103
     39 H12        38.7790   37.4881   10.5798 H           1 GSZ       0.0654
     40 H13        37.0662   35.8777    9.0280 H           1 GSZ       0.2100
     41 H14        35.7445   37.1306   10.6892 H           1 GSZ       0.0699
     42 H15        37.1996   35.8253   12.2839 H           1 GSZ       0.0589
     43 H16        36.1104   36.9342   13.1232 H           1 GSZ       0.0589
     44 H17        37.8032   38.3899   13.3412 H           1 GSZ       0.2095
     45 H18        34.9780   39.0586   12.8315 H           1 GSZ       0.0663
     46 H19        33.9062   41.7695   12.8220 H           1 GSZ       0.0392
     47 H20        35.2016   42.9318   12.5377 H           1 GSZ       0.0392
     48 H21        34.7452   42.5171   14.9775 H           1 GSZ       0.0442
     49 H22        36.4130   42.2719   14.4916 H           1 GSZ       0.0442
     50 H23        33.2200   40.3434   15.0001 H           1 GSZ       0.0557
     51 H24        33.1317   38.0472   15.7381 H           1 GSZ       0.0599
     52 H25        35.1845   36.8233   16.1618 H           1 GSZ       0.0559
     53 H26        37.3299   37.9257   15.9259 H           1 GSZ       0.0599
     54 H27        37.4393   40.2122   15.1722 H           1 GSZ       0.0557
@<TRIPOS>BOND
     1     1     2   1
     2     2     3   1
     3     2     4   1
     4     4     5   2
     5     4     6  am
     6     6     7   1
     7     7     8   1
     8     7    17   1
     9     8     9   1
    10     8    10   1
    11    10    11   1
    12    10    12   1
    13    12    13   1
    14    12    15   1
    15    13    14   1
    16    15    16   1
    17    15    17   1
    18    16    19   2
    19    17    18   2
    20    18    19   1
    21    19    20   1
    22    20    21   1
    23    21    22   1
    24    22    23  ar
    25    22    27  ar
    26    23    24  ar
    27    24    25  ar
    28    25    26  ar
    29    26    27  ar
    30     1    28   1
    31     1    29   1
    32     1    30   1
    33     2    31   1
    34     3    32   1
    35     3    33   1
    36     3    34   1
    37     6    35   1
    38     7    36   1
    39     8    37   1
    40     9    38   1
    41    10    39   1
    42    11    40   1
    43    12    41   1
    44    13    42   1
    45    13    43   1
    46    14    44   1
    47    16    45   1
    48    20    46   1
    49    20    47   1
    50    21    48   1
    51    21    49   1
    52    23    50   1
    53    24    51   1
    54    25    52   1
    55    26    53   1
    56    27    54   1
@<TRIPOS>SUBSTRUCTURE
     1  GSZ      1

