@<TRIPOS>MOLECULE
2j62_ligand_016
    54    56
SMALL
GAST_HUCK
****
This file was generated by PARSER (from files_GN.cpp)

@<TRIPOS>ATOM
      1 CAZ        36.3718   41.9931   10.0697 C.3         1 GSZ      -0.0456
      2 CAN        37.4244   41.0081    9.4920 C.3         1 GSZ       0.0432
      3 CBA        36.9719   40.4379    8.1174 C.3         1 GSZ      -0.0456
      4 CAL        37.7394   39.9492   10.4487 C.2         1 GSZ       0.1811
      5 OAM        38.8686   39.8870   10.9206 O.2         1 GSZ      -0.3966
      6 NAK        36.8192   39.0544   10.7703 N.am        1 GSZ      -0.2638
      7 CAC        36.9539   37.9221   11.6371 C.3         1 GSZ       0.1446
      8 CAB        36.6554   36.6350   10.8124 C.3         1 GSZ       0.1222
      9 OAG        37.7106   36.4236    9.8722 O.3         1 GSZ      -0.3842
     10 CAA        36.4764   35.3945   11.7336 C.3         1 GSZ       0.1176
     11 OAH        36.1757   34.2328   10.9556 O.3         1 GSZ      -0.3858
     12 CAF        35.3788   35.6218   12.8360 C.3         1 GSZ       0.1168
     13 CAI        35.5933   34.5853   13.9818 C.3         1 GSZ       0.0768
     14 OAJ        34.7336   34.7578   15.1079 O.3         1 GSZ      -0.3919
     15 NAE        35.2953   36.9957   13.2789 N.pl3       1 GSZ      -0.2497
     16 CAQ        34.4570   37.5290   14.1849 C.2         1 GSZ       0.0236
     17 CAD        35.9839   38.0391   12.7514 C.2         1 GSZ       0.1393
     18 NAO        35.6413   39.1976   13.3508 N.2         1 GSZ      -0.3317
     19 CAP        34.6823   38.8965   14.2419 C.2         1 GSZ      -0.0178
     20 CAR        34.0305   39.8515   15.1658 C.3         1 GSZ      -0.0191
     21 CAS        32.7852   40.5976   14.5777 C.3         1 GSZ      -0.0133
     22 CAT        31.5247   40.4616   15.3643 C.ar        1 GSZ      -0.0416
     23 CAU        30.2749   40.2400   14.7310 C.ar        1 GSZ      -0.0602
     24 CAV        29.0898   40.1076   15.4815 C.ar        1 GSZ      -0.0686
     25 CAW        29.1329   40.2130   16.8821 C.ar        1 GSZ      -0.0687
     26 CAX        30.3591   40.4647   17.5271 C.ar        1 GSZ      -0.0686
     27 CAY        31.5394   40.5953   16.7735 C.ar        1 GSZ      -0.0602
     28 H1         36.1789   42.8034    9.3607 H           1 GSZ       0.0257
     29 H2         36.7388   42.4360   10.9979 H           1 GSZ       0.0257
     30 H3         35.4297   41.4814   10.2739 H           1 GSZ       0.0257
     31 H4         38.3302   41.5986    9.2974 H           1 GSZ       0.0532
     32 H5         37.7144   39.7337    7.7337 H           1 GSZ       0.0257
     33 H6         36.8594   41.2479    7.3914 H           1 GSZ       0.0257
     34 H7         36.0129   39.9218    8.2014 H           1 GSZ       0.0257
     35 H8         35.9572   39.1605   10.3518 H           1 GSZ       0.1888
     36 H9         37.9544   37.8467   12.0796 H           1 GSZ       0.0820
     37 H10        35.7302   36.7784   10.2470 H           1 GSZ       0.0672
     38 H11        37.2731   36.0806    9.0635 H           1 GSZ       0.2103
     39 H12        37.4454   35.2080   12.2028 H           1 GSZ       0.0654
     40 H13        35.2044   34.2581   10.8169 H           1 GSZ       0.2100
     41 H14        34.4106   35.4043   12.3855 H           1 GSZ       0.0699
     42 H15        36.6310   34.6099   14.3354 H           1 GSZ       0.0589
     43 H16        35.4007   33.5814   13.5932 H           1 GSZ       0.0589
     44 H17        35.3264   35.1191   15.8075 H           1 GSZ       0.2095
     45 H18        33.7558   37.0294   14.7298 H           1 GSZ       0.0663
     46 H19        34.7899   40.5862   15.4527 H           1 GSZ       0.0392
     47 H20        33.7653   39.3042   16.0750 H           1 GSZ       0.0392
     48 H21        32.6177   40.2773   13.5429 H           1 GSZ       0.0442
     49 H22        33.0125   41.6657   14.5373 H           1 GSZ       0.0442
     50 H23        30.2128   40.1862   13.7050 H           1 GSZ       0.0557
     51 H24        28.2014   39.9357   15.0107 H           1 GSZ       0.0599
     52 H25        28.2732   40.1173   17.4306 H           1 GSZ       0.0559
     53 H26        30.3922   40.5326   18.5548 H           1 GSZ       0.0599
     54 H27        32.4081   40.7897   17.2677 H           1 GSZ       0.0557
@<TRIPOS>BOND
     1     1     2   1
     2     2     3   1
     3     2     4   1
     4     4     5   2
     5     4     6  am
     6     6     7   1
     7     7     8   1
     8     7    17   1
     9     8     9   1
    10     8    10   1
    11    10    11   1
    12    10    12   1
    13    12    13   1
    14    12    15   1
    15    13    14   1
    16    15    16   1
    17    15    17   1
    18    16    19   2
    19    17    18   2
    20    18    19   1
    21    19    20   1
    22    20    21   1
    23    21    22   1
    24    22    23  ar
    25    22    27  ar
    26    23    24  ar
    27    24    25  ar
    28    25    26  ar
    29    26    27  ar
    30     1    28   1
    31     1    29   1
    32     1    30   1
    33     2    31   1
    34     3    32   1
    35     3    33   1
    36     3    34   1
    37     6    35   1
    38     7    36   1
    39     8    37   1
    40     9    38   1
    41    10    39   1
    42    11    40   1
    43    12    41   1
    44    13    42   1
    45    13    43   1
    46    14    44   1
    47    16    45   1
    48    20    46   1
    49    20    47   1
    50    21    48   1
    51    21    49   1
    52    23    50   1
    53    24    51   1
    54    25    52   1
    55    26    53   1
    56    27    54   1
@<TRIPOS>SUBSTRUCTURE
     1  GSZ      1

