@<TRIPOS>MOLECULE
2j62_ligand_053
    54    56
SMALL
GAST_HUCK
****
This file was generated by PARSER (from files_GN.cpp)

@<TRIPOS>ATOM
      1 CAZ        28.4593   39.7255   24.3182 C.3         1 GSZ      -0.0456
      2 CAN        28.9112   39.3872   22.8709 C.3         1 GSZ       0.0432
      3 CBA        30.3158   38.7295   22.8379 C.3         1 GSZ      -0.0456
      4 CAL        28.8470   40.5222   21.9778 C.2         1 GSZ       0.1811
      5 OAM        29.4681   41.5678   22.3011 O.2         1 GSZ      -0.3966
      6 NAK        28.4186   40.3950   20.7468 N.am        1 GSZ      -0.2638
      7 CAC        28.5082   41.3443   19.6656 C.3         1 GSZ       0.1446
      8 CAB        27.6801   40.8345   18.4486 C.3         1 GSZ       0.1222
      9 OAG        26.2904   40.8263   18.7792 O.3         1 GSZ      -0.3842
     10 CAA        27.9335   41.7100   17.1930 C.3         1 GSZ       0.1176
     11 OAH        27.1524   41.2390   16.0912 O.3         1 GSZ      -0.3858
     12 CAF        29.4529   41.7427   16.8049 C.3         1 GSZ       0.1168
     13 CAI        29.7133   42.9572   15.8665 C.3         1 GSZ       0.0768
     14 OAJ        31.0770   43.0783   15.4811 O.3         1 GSZ      -0.3919
     15 NAE        30.3184   41.7368   17.9662 N.pl3       1 GSZ      -0.2497
     16 CAQ        31.6629   41.7928   17.9967 C.2         1 GSZ       0.0236
     17 CAD        29.9134   41.5841   19.2463 C.2         1 GSZ       0.1393
     18 NAO        30.9771   41.6233   20.0669 N.2         1 GSZ      -0.3317
     19 CAP        32.0778   41.7730   19.3211 C.2         1 GSZ      -0.0178
     20 CAR        33.4555   41.8262   19.8586 C.3         1 GSZ      -0.0191
     21 CAS        33.7433   43.0377   20.7914 C.3         1 GSZ      -0.0133
     22 CAT        32.7223   43.2585   21.8527 C.ar        1 GSZ      -0.0416
     23 CAU        32.0251   44.4891   21.9631 C.ar        1 GSZ      -0.0602
     24 CAV        31.0153   44.6626   22.9259 C.ar        1 GSZ      -0.0686
     25 CAW        30.6446   43.5837   23.7475 C.ar        1 GSZ      -0.0687
     26 CAX        31.3183   42.3589   23.6394 C.ar        1 GSZ      -0.0686
     27 CAY        32.3778   42.2039   22.7245 C.ar        1 GSZ      -0.0602
     28 H1         28.4365   38.8195   24.9257 H           1 GSZ       0.0257
     29 H2         27.4543   40.1556   24.3193 H           1 GSZ       0.0257
     30 H3         29.1469   40.4402   24.7757 H           1 GSZ       0.0257
     31 H4         28.2161   38.6251   22.4979 H           1 GSZ       0.0532
     32 H5         30.5455   38.3727   21.8308 H           1 GSZ       0.0257
     33 H6         30.3438   37.8753   23.5137 H           1 GSZ       0.0257
     34 H7         31.0884   39.4369   23.1404 H           1 GSZ       0.0257
     35 H8         27.9887   39.5415   20.5365 H           1 GSZ       0.1888
     36 H9         28.0902   42.2972   19.9976 H           1 GSZ       0.0820
     37 H10        27.9803   39.8130   18.2071 H           1 GSZ       0.0672
     38 H11        25.8586   40.2819   18.0868 H           1 GSZ       0.2103
     39 H12        27.5879   42.7221   17.4296 H           1 GSZ       0.0654
     40 H13        27.1576   40.2609   16.1598 H           1 GSZ       0.2100
     41 H14        29.6796   40.8293   16.2453 H           1 GSZ       0.0699
     42 H15        29.4173   43.8828   16.3625 H           1 GSZ       0.0589
     43 H16        29.1215   42.8499   14.9557 H           1 GSZ       0.0589
     44 H17        31.3501   42.1809   15.1949 H           1 GSZ       0.2095
     45 H18        32.2877   41.8418   17.1938 H           1 GSZ       0.0663
     46 H19        34.1681   41.8732   19.0346 H           1 GSZ       0.0392
     47 H20        33.6464   40.8917   20.3891 H           1 GSZ       0.0392
     48 H21        33.8433   43.9300   20.1678 H           1 GSZ       0.0442
     49 H22        34.7116   42.8819   21.2704 H           1 GSZ       0.0442
     50 H23        32.2446   45.2673   21.3371 H           1 GSZ       0.0557
     51 H24        30.5391   45.5606   23.0219 H           1 GSZ       0.0599
     52 H25        29.8751   43.6886   24.4104 H           1 GSZ       0.0559
     53 H26        31.0258   41.5564   24.1928 H           1 GSZ       0.0599
     54 H27        32.8566   41.3024   22.6701 H           1 GSZ       0.0557
@<TRIPOS>BOND
     1     1     2   1
     2     2     3   1
     3     2     4   1
     4     4     5   2
     5     4     6  am
     6     6     7   1
     7     7     8   1
     8     7    17   1
     9     8     9   1
    10     8    10   1
    11    10    11   1
    12    10    12   1
    13    12    13   1
    14    12    15   1
    15    13    14   1
    16    15    16   1
    17    15    17   1
    18    16    19   2
    19    17    18   2
    20    18    19   1
    21    19    20   1
    22    20    21   1
    23    21    22   1
    24    22    23  ar
    25    22    27  ar
    26    23    24  ar
    27    24    25  ar
    28    25    26  ar
    29    26    27  ar
    30     1    28   1
    31     1    29   1
    32     1    30   1
    33     2    31   1
    34     3    32   1
    35     3    33   1
    36     3    34   1
    37     6    35   1
    38     7    36   1
    39     8    37   1
    40     9    38   1
    41    10    39   1
    42    11    40   1
    43    12    41   1
    44    13    42   1
    45    13    43   1
    46    14    44   1
    47    16    45   1
    48    20    46   1
    49    20    47   1
    50    21    48   1
    51    21    49   1
    52    23    50   1
    53    24    51   1
    54    25    52   1
    55    26    53   1
    56    27    54   1
@<TRIPOS>SUBSTRUCTURE
     1  GSZ      1

