@<TRIPOS>MOLECULE
2j62_ligand_031
    54    56
SMALL
GAST_HUCK
****
This file was generated by PARSER (from files_GN.cpp)

@<TRIPOS>ATOM
      1 CAZ        33.9809   40.3407   15.0976 C.3         1 GSZ      -0.0456
      2 CAN        34.7037   39.0486   14.6167 C.3         1 GSZ       0.0432
      3 CBA        35.7157   38.4996   15.6622 C.3         1 GSZ      -0.0456
      4 CAL        35.3430   39.2455   13.3173 C.2         1 GSZ       0.1811
      5 OAM        34.9898   38.5214   12.3903 O.2         1 GSZ      -0.3966
      6 NAK        36.3202   40.1430   13.1501 N.am        1 GSZ      -0.2638
      7 CAC        36.9993   40.4668   11.9286 C.3         1 GSZ       0.1446
      8 CAB        36.1846   41.4687   11.0479 C.3         1 GSZ       0.1222
      9 OAG        36.0081   42.7162   11.7267 O.3         1 GSZ      -0.3842
     10 CAA        36.8822   41.6692    9.6754 C.3         1 GSZ       0.1176
     11 OAH        36.1573   42.6157    8.8832 O.3         1 GSZ      -0.3858
     12 CAF        37.0744   40.3117    8.9023 C.3         1 GSZ       0.1168
     13 CAI        38.0757   40.4965    7.7080 C.3         1 GSZ       0.0768
     14 OAJ        39.0310   39.4515    7.5641 O.3         1 GSZ      -0.3919
     15 NAE        37.3641   39.2027    9.8017 N.pl3       1 GSZ      -0.2497
     16 CAQ        37.5604   37.9118    9.4806 C.2         1 GSZ       0.0236
     17 CAD        37.3528   39.2586   11.1526 C.2         1 GSZ       0.1393
     18 NAO        37.6033   38.0417   11.6789 N.2         1 GSZ      -0.3317
     19 CAP        37.7385   37.1903   10.6569 C.2         1 GSZ      -0.0178
     20 CAR        38.0425   35.7525   10.7646 C.3         1 GSZ      -0.0191
     21 CAS        36.7903   34.8366   10.7653 C.3         1 GSZ      -0.0133
     22 CAT        36.2537   34.5730   12.1295 C.ar        1 GSZ      -0.0416
     23 CAU        35.4477   35.5245   12.8065 C.ar        1 GSZ      -0.0602
     24 CAV        34.9567   35.2370   14.1033 C.ar        1 GSZ      -0.0686
     25 CAW        35.2845   34.0334   14.7532 C.ar        1 GSZ      -0.0687
     26 CAX        36.0921   33.0929   14.0865 C.ar        1 GSZ      -0.0686
     27 CAY        36.5606   33.3475   12.7820 C.ar        1 GSZ      -0.0602
     28 H1         33.4287   40.1363   16.0158 H           1 GSZ       0.0257
     29 H2         33.2617   40.6780   14.3434 H           1 GSZ       0.0257
     30 H3         34.6968   41.1486   15.2872 H           1 GSZ       0.0257
     31 H4         33.9208   38.2885   14.5048 H           1 GSZ       0.0532
     32 H5         36.2230   37.6135   15.2638 H           1 GSZ       0.0257
     33 H6         35.1945   38.2192   16.5758 H           1 GSZ       0.0257
     34 H7         36.4697   39.2566   15.9053 H           1 GSZ       0.0257
     35 H8         36.6425   40.5963   13.9510 H           1 GSZ       0.1888
     36 H9         37.9437   40.9357   12.2046 H           1 GSZ       0.0820
     37 H10        35.1855   41.0760   10.8488 H           1 GSZ       0.0672
     38 H11        36.8519   43.2263   11.5752 H           1 GSZ       0.2103
     39 H12        37.8580   42.1197    9.8843 H           1 GSZ       0.0654
     40 H13        35.2340   42.2875    8.8329 H           1 GSZ       0.2100
     41 H14        36.0972   40.0609    8.4652 H           1 GSZ       0.0699
     42 H15        38.6533   41.4156    7.8078 H           1 GSZ       0.0589
     43 H16        37.5103   40.5641    6.7748 H           1 GSZ       0.0589
     44 H17        39.0078   39.2269    6.6025 H           1 GSZ       0.2095
     45 H18        37.5801   37.5108    8.5410 H           1 GSZ       0.0663
     46 H19        38.6349   35.5761   11.6608 H           1 GSZ       0.0392
     47 H20        38.6741   35.4906    9.9163 H           1 GSZ       0.0392
     48 H21        37.0821   33.8940   10.2979 H           1 GSZ       0.0442
     49 H22        36.0038   35.2477   10.1255 H           1 GSZ       0.0442
     50 H23        35.2184   36.4391   12.3604 H           1 GSZ       0.0557
     51 H24        34.3551   35.9148   14.5727 H           1 GSZ       0.0599
     52 H25        34.9585   33.8522   15.7036 H           1 GSZ       0.0559
     53 H26        36.3444   32.2057   14.5442 H           1 GSZ       0.0599
     54 H27        37.1475   32.6512   12.3141 H           1 GSZ       0.0557
@<TRIPOS>BOND
     1     1     2   1
     2     2     3   1
     3     2     4   1
     4     4     5   2
     5     4     6  am
     6     6     7   1
     7     7     8   1
     8     7    17   1
     9     8     9   1
    10     8    10   1
    11    10    11   1
    12    10    12   1
    13    12    13   1
    14    12    15   1
    15    13    14   1
    16    15    16   1
    17    15    17   1
    18    16    19   2
    19    17    18   2
    20    18    19   1
    21    19    20   1
    22    20    21   1
    23    21    22   1
    24    22    23  ar
    25    22    27  ar
    26    23    24  ar
    27    24    25  ar
    28    25    26  ar
    29    26    27  ar
    30     1    28   1
    31     1    29   1
    32     1    30   1
    33     2    31   1
    34     3    32   1
    35     3    33   1
    36     3    34   1
    37     6    35   1
    38     7    36   1
    39     8    37   1
    40     9    38   1
    41    10    39   1
    42    11    40   1
    43    12    41   1
    44    13    42   1
    45    13    43   1
    46    14    44   1
    47    16    45   1
    48    20    46   1
    49    20    47   1
    50    21    48   1
    51    21    49   1
    52    23    50   1
    53    24    51   1
    54    25    52   1
    55    26    53   1
    56    27    54   1
@<TRIPOS>SUBSTRUCTURE
     1  GSZ      1

