@<TRIPOS>MOLECULE
2j62_ligand_060
    54    56
SMALL
GAST_HUCK
****
This file was generated by PARSER (from files_GN.cpp)

@<TRIPOS>ATOM
      1 CAZ        25.4716   44.8339   10.3436 C.3         1 GSZ      -0.0456
      2 CAN        26.6678   45.7724   10.6538 C.3         1 GSZ       0.0432
      3 CBA        27.5997   45.8903    9.4085 C.3         1 GSZ      -0.0456
      4 CAL        27.3470   45.3752   11.8855 C.2         1 GSZ       0.1811
      5 OAM        28.5726   45.2605   11.9175 O.2         1 GSZ      -0.3966
      6 NAK        26.6438   45.2002   12.9955 N.am        1 GSZ      -0.2638
      7 CAC        27.1284   44.9173   14.3238 C.3         1 GSZ       0.1446
      8 CAB        28.1599   45.9990   14.7876 C.3         1 GSZ       0.1222
      9 OAG        27.5464   47.2891   14.8448 O.3         1 GSZ      -0.3842
     10 CAA        28.7806   45.6197   16.1676 C.3         1 GSZ       0.1176
     11 OAH        29.7060   46.6240   16.5762 O.3         1 GSZ      -0.3858
     12 CAF        29.4840   44.2218   16.1222 C.3         1 GSZ       0.1168
     13 CAI        29.6958   43.6428   17.5561 C.3         1 GSZ       0.0768
     14 OAJ        28.5135   43.7605   18.3585 O.3         1 GSZ      -0.3919
     15 NAE        28.7859   43.2928   15.2604 N.pl3       1 GSZ      -0.2497
     16 CAQ        29.0912   41.9981   15.0692 C.2         1 GSZ       0.0236
     17 CAD        27.7017   43.5558   14.4941 C.2         1 GSZ       0.1393
     18 NAO        27.2693   42.4270   13.8983 N.2         1 GSZ      -0.3317
     19 CAP        28.1139   41.4422   14.2549 C.2         1 GSZ      -0.0178
     20 CAR        28.0175   40.0117   13.8781 C.3         1 GSZ      -0.0191
     21 CAS        27.6999   39.0632   15.0721 C.3         1 GSZ      -0.0133
     22 CAT        28.7405   39.0587   16.1353 C.ar        1 GSZ      -0.0416
     23 CAU        28.7276   40.0413   17.1517 C.ar        1 GSZ      -0.0602
     24 CAV        29.7426   40.0859   18.1256 C.ar        1 GSZ      -0.0686
     25 CAW        30.7984   39.1521   18.0795 C.ar        1 GSZ      -0.0687
     26 CAX        30.8112   38.1516   17.0898 C.ar        1 GSZ      -0.0686
     27 CAY        29.7933   38.1134   16.1164 C.ar        1 GSZ      -0.0602
     28 H1         24.9536   45.1554    9.4326 H           1 GSZ       0.0257
     29 H2         24.7483   44.8463   11.1599 H           1 GSZ       0.0257
     30 H3         25.8198   43.8088   10.1951 H           1 GSZ       0.0257
     31 H4         26.2590   46.7768   10.8180 H           1 GSZ       0.0532
     32 H5         28.4000   46.6148    9.5911 H           1 GSZ       0.0257
     33 H6         27.0390   46.2285    8.5282 H           1 GSZ       0.0257
     34 H7         28.0567   44.9220    9.1714 H           1 GSZ       0.0257
     35 H8         25.6784   45.3070   12.9216 H           1 GSZ       0.1888
     36 H9         26.2544   44.9676   14.9855 H           1 GSZ       0.0820
     37 H10        28.9709   46.0759   14.0564 H           1 GSZ       0.0672
     38 H11        27.3497   47.5334   13.9140 H           1 GSZ       0.2103
     39 H12        27.9775   45.5880   16.9093 H           1 GSZ       0.0654
     40 H13        29.1858   47.4539   16.6236 H           1 GSZ       0.2100
     41 H14        30.4807   44.3554   15.6956 H           1 GSZ       0.0699
     42 H15        30.5058   44.1865   18.0567 H           1 GSZ       0.0589
     43 H16        29.9816   42.5768   17.5028 H           1 GSZ       0.0589
     44 H17        28.7476   43.3102   19.2036 H           1 GSZ       0.2095
     45 H18        29.8909   41.5079   15.4570 H           1 GSZ       0.0663
     46 H19        28.9511   39.7074   13.3958 H           1 GSZ       0.0392
     47 H20        27.2229   39.9003   13.1339 H           1 GSZ       0.0392
     48 H21        27.5768   38.0469   14.6853 H           1 GSZ       0.0442
     49 H22        26.7306   39.3426   15.4980 H           1 GSZ       0.0442
     50 H23        27.9610   40.7088   17.2233 H           1 GSZ       0.0557
     51 H24        29.7268   40.7942   18.8604 H           1 GSZ       0.0599
     52 H25        31.5459   39.1854   18.7823 H           1 GSZ       0.0559
     53 H26        31.5683   37.4597   17.0701 H           1 GSZ       0.0599
     54 H27        29.8161   37.3773   15.4103 H           1 GSZ       0.0557
@<TRIPOS>BOND
     1     1     2   1
     2     2     3   1
     3     2     4   1
     4     4     5   2
     5     4     6  am
     6     6     7   1
     7     7     8   1
     8     7    17   1
     9     8     9   1
    10     8    10   1
    11    10    11   1
    12    10    12   1
    13    12    13   1
    14    12    15   1
    15    13    14   1
    16    15    16   1
    17    15    17   1
    18    16    19   2
    19    17    18   2
    20    18    19   1
    21    19    20   1
    22    20    21   1
    23    21    22   1
    24    22    23  ar
    25    22    27  ar
    26    23    24  ar
    27    24    25  ar
    28    25    26  ar
    29    26    27  ar
    30     1    28   1
    31     1    29   1
    32     1    30   1
    33     2    31   1
    34     3    32   1
    35     3    33   1
    36     3    34   1
    37     6    35   1
    38     7    36   1
    39     8    37   1
    40     9    38   1
    41    10    39   1
    42    11    40   1
    43    12    41   1
    44    13    42   1
    45    13    43   1
    46    14    44   1
    47    16    45   1
    48    20    46   1
    49    20    47   1
    50    21    48   1
    51    21    49   1
    52    23    50   1
    53    24    51   1
    54    25    52   1
    55    26    53   1
    56    27    54   1
@<TRIPOS>SUBSTRUCTURE
     1  GSZ      1

