@<TRIPOS>MOLECULE
2j62_ligand_033
    54    56
SMALL
GAST_HUCK
****
This file was generated by PARSER (from files_GN.cpp)

@<TRIPOS>ATOM
      1 CAZ        34.6164   34.2414   14.5923 C.3         1 GSZ      -0.0456
      2 CAN        33.6184   35.2456   15.2242 C.3         1 GSZ       0.0432
      3 CBA        32.3284   35.3580   14.3675 C.3         1 GSZ      -0.0456
      4 CAL        34.2770   36.5287   15.4648 C.2         1 GSZ       0.1811
      5 OAM        34.8361   36.6856   16.5425 O.2         1 GSZ      -0.3966
      6 NAK        34.3841   37.4613   14.5209 N.am        1 GSZ      -0.2638
      7 CAC        35.0187   38.7472   14.6430 C.3         1 GSZ       0.1446
      8 CAB        34.0464   39.8803   14.1877 C.3         1 GSZ       0.1222
      9 OAG        32.9332   39.9836   15.0761 O.3         1 GSZ      -0.3842
     10 CAA        34.7954   41.2440   14.1302 C.3         1 GSZ       0.1176
     11 OAH        33.9066   42.2900   13.7297 O.3         1 GSZ      -0.3858
     12 CAF        36.0182   41.1851   13.1493 C.3         1 GSZ       0.1168
     13 CAI        36.9774   42.3905   13.3817 C.3         1 GSZ       0.0768
     14 OAJ        37.5706   42.3857   14.6792 O.3         1 GSZ      -0.3919
     15 NAE        36.6907   39.9042   13.1819 N.pl3       1 GSZ      -0.2497
     16 CAQ        37.7840   39.5380   12.4888 C.2         1 GSZ       0.0236
     17 CAD        36.2571   38.7976   13.8302 C.2         1 GSZ       0.1393
     18 NAO        37.0938   37.7649   13.6041 N.2         1 GSZ      -0.3317
     19 CAP        38.0499   38.2013   12.7680 C.2         1 GSZ      -0.0178
     20 CAR        39.1656   37.4067   12.2190 C.3         1 GSZ      -0.0191
     21 CAS        38.8453   36.7279   10.8552 C.3         1 GSZ      -0.0133
     22 CAT        38.2004   35.3869   10.9625 C.ar        1 GSZ      -0.0416
     23 CAU        38.9438   34.2046   10.7238 C.ar        1 GSZ      -0.0602
     24 CAV        38.3294   32.9417   10.7994 C.ar        1 GSZ      -0.0686
     25 CAW        36.9586   32.8394   11.0920 C.ar        1 GSZ      -0.0687
     26 CAX        36.1980   34.0038   11.2868 C.ar        1 GSZ      -0.0686
     27 CAY        36.8195   35.2672   11.2502 C.ar        1 GSZ      -0.0602
     28 H1         34.1345   33.2821   14.3990 H           1 GSZ       0.0257
     29 H2         35.4562   34.0572   15.2646 H           1 GSZ       0.0257
     30 H3         35.0001   34.6266   13.6476 H           1 GSZ       0.0257
     31 H4         33.3062   34.8235   16.1862 H           1 GSZ       0.0532
     32 H5         31.6439   36.0813   14.8101 H           1 GSZ       0.0257
     33 H6         31.8131   34.3954   14.3185 H           1 GSZ       0.0257
     34 H7         32.5631   35.6725   13.3492 H           1 GSZ       0.0257
     35 H8         33.9947   37.2642   13.6558 H           1 GSZ       0.1888
     36 H9         35.3162   38.9525   15.6752 H           1 GSZ       0.0820
     37 H10        33.6567   39.6526   13.1898 H           1 GSZ       0.0672
     38 H11        32.4032   39.1742   14.9261 H           1 GSZ       0.2103
     39 H12        35.1478   41.4785   15.1406 H           1 GSZ       0.0654
     40 H13        33.2382   42.3496   14.4454 H           1 GSZ       0.2100
     41 H14        35.6258   41.2873   12.1332 H           1 GSZ       0.0699
     42 H15        36.4187   43.3216   13.2745 H           1 GSZ       0.0589
     43 H16        37.7686   42.3963   12.6297 H           1 GSZ       0.0589
     44 H17        38.1753   41.6160   14.7015 H           1 GSZ       0.2095
     45 H18        38.3298   40.1306   11.8599 H           1 GSZ       0.0663
     46 H19        39.4770   36.6588   12.9490 H           1 GSZ       0.0392
     47 H20        40.0174   38.0794   12.0928 H           1 GSZ       0.0392
     48 H21        39.7873   36.6248   10.3129 H           1 GSZ       0.0442
     49 H22        38.2222   37.3854   10.2424 H           1 GSZ       0.0442
     50 H23        39.9405   34.2543   10.4913 H           1 GSZ       0.0557
     51 H24        38.8753   32.0961   10.6286 H           1 GSZ       0.0599
     52 H25        36.5158   31.9206   11.1490 H           1 GSZ       0.0559
     53 H26        35.1923   33.9331   11.4567 H           1 GSZ       0.0599
     54 H27        36.2522   36.1014   11.4121 H           1 GSZ       0.0557
@<TRIPOS>BOND
     1     1     2   1
     2     2     3   1
     3     2     4   1
     4     4     5   2
     5     4     6  am
     6     6     7   1
     7     7     8   1
     8     7    17   1
     9     8     9   1
    10     8    10   1
    11    10    11   1
    12    10    12   1
    13    12    13   1
    14    12    15   1
    15    13    14   1
    16    15    16   1
    17    15    17   1
    18    16    19   2
    19    17    18   2
    20    18    19   1
    21    19    20   1
    22    20    21   1
    23    21    22   1
    24    22    23  ar
    25    22    27  ar
    26    23    24  ar
    27    24    25  ar
    28    25    26  ar
    29    26    27  ar
    30     1    28   1
    31     1    29   1
    32     1    30   1
    33     2    31   1
    34     3    32   1
    35     3    33   1
    36     3    34   1
    37     6    35   1
    38     7    36   1
    39     8    37   1
    40     9    38   1
    41    10    39   1
    42    11    40   1
    43    12    41   1
    44    13    42   1
    45    13    43   1
    46    14    44   1
    47    16    45   1
    48    20    46   1
    49    20    47   1
    50    21    48   1
    51    21    49   1
    52    23    50   1
    53    24    51   1
    54    25    52   1
    55    26    53   1
    56    27    54   1
@<TRIPOS>SUBSTRUCTURE
     1  GSZ      1

