@<TRIPOS>MOLECULE
2j78_ligand_031
    25    25
SMALL
GAST_HUCK
****
This file was generated by PARSER (from files_GN.cpp)

@<TRIPOS>ATOM
      1 C1         -0.8906    7.5200   10.1698 C.2         1 GOX       0.1322
      2 N1         -0.4393    6.2593    9.9756 N.2         1 GOX      -0.2068
      3 C2         -0.9939    8.1796   11.5097 C.3         1 GOX       0.1503
      4 N5         -1.2182    8.2428    9.0669 N.pl3       1 GOX      -0.2990
      5 O7         -0.1286    5.4521   10.9535 O.3         1 GOX      -0.3046
      6 O2         -2.3698    8.2451   11.8671 O.3         1 GOX      -0.3713
      7 C3         -0.3888    9.6141   11.4550 C.3         1 GOX       0.1233
      8 O3          1.0258    9.5082   11.6491 O.3         1 GOX      -0.3841
      9 C4         -0.6713   10.3891   10.1078 C.3         1 GOX       0.1104
     10 O4         -1.2294   11.6810   10.3826 O.3         1 GOX      -0.3866
     11 C5         -1.6196    9.6140    9.1388 C.3         1 GOX       0.0898
     12 C6         -1.6430   10.2222    7.7153 C.3         1 GOX       0.0694
     13 O6         -2.8541    9.8831    7.0368 O.3         1 GOX      -0.3927
     14 H1         -0.4954    7.5819   12.2631 H           1 GOX       0.0843
     15 H2         -1.1242    7.8227    8.1932 H           1 GOX       0.1812
     16 H3          0.8007    5.1794   10.7676 H           1 GOX       0.2523
     17 H4         -2.5228    7.4771   12.4602 H           1 GOX       0.2137
     18 H5         -0.7843   10.1648   12.3101 H           1 GOX       0.0673
     19 H6          1.3006   10.3425   12.0908 H           1 GOX       0.2103
     20 H7          0.2772   10.5680    9.5893 H           1 GOX       0.0646
     21 H8         -0.4570   12.2826   10.5077 H           1 GOX       0.2100
     22 H9         -2.6333    9.6550    9.5467 H           1 GOX       0.0603
     23 H10        -0.7932    9.8599    7.1283 H           1 GOX       0.0581
     24 H11        -1.5787   11.3210    7.7677 H           1 GOX       0.0581
     25 H12        -2.6938   10.1171    6.0949 H           1 GOX       0.2095
@<TRIPOS>BOND
     1     1     2   2
     2     1     3   1
     3     1     4   1
     4     2     5   1
     5     3     6   1
     6     3     7   1
     7     4    11   1
     8     7     8   1
     9     7     9   1
    10     9    10   1
    11     9    11   1
    12    11    12   1
    13    12    13   1
    14     3    14   1
    15     4    15   1
    16     5    16   1
    17     6    17   1
    18     7    18   1
    19     8    19   1
    20     9    20   1
    21    10    21   1
    22    11    22   1
    23    12    23   1
    24    12    24   1
    25    13    25   1
@<TRIPOS>SUBSTRUCTURE
     1  GOX      1

