@<TRIPOS>MOLECULE
2j78_ligand_058
    25    25
SMALL
GAST_HUCK
****
This file was generated by PARSER (from files_GN.cpp)

@<TRIPOS>ATOM
      1 C1         -0.1733    8.9592   15.1259 C.2         1 GOX       0.1322
      2 N1         -1.2094    9.7513   15.4696 N.2         1 GOX      -0.2068
      3 C2          0.1201    7.6712   15.8163 C.3         1 GOX       0.1503
      4 N5          0.5640    9.3963   14.0785 N.pl3       1 GOX      -0.2990
      5 O7         -2.0840    9.4709   16.3946 O.3         1 GOX      -0.3046
      6 O2          0.2344    7.8795   17.2258 O.3         1 GOX      -0.3713
      7 C3          1.4457    7.0108   15.3393 C.3         1 GOX       0.1233
      8 O3          1.4602    5.6381   15.7350 O.3         1 GOX      -0.3841
      9 C4          1.6205    7.1441   13.8056 C.3         1 GOX       0.1104
     10 O4          2.8492    6.5283   13.4192 O.3         1 GOX      -0.3866
     11 C5          1.5859    8.6530   13.3985 C.3         1 GOX       0.0898
     12 C6          1.4018    8.8499   11.8692 C.3         1 GOX       0.0694
     13 O6          2.5541    8.4336   11.1455 O.3         1 GOX      -0.3927
     14 H1         -0.7109    6.9879   15.6284 H           1 GOX       0.0843
     15 H2          0.4164   10.3098   13.7847 H           1 GOX       0.1812
     16 H3         -2.6213   10.2878   16.4812 H           1 GOX       0.2523
     17 H4         -0.6710    8.0893   17.5410 H           1 GOX       0.2137
     18 H5          2.2925    7.5050   15.8269 H           1 GOX       0.0673
     19 H6          2.3511    5.3063   15.4918 H           1 GOX       0.2103
     20 H7          0.8023    6.6053   13.3176 H           1 GOX       0.0646
     21 H8          2.8567    6.5441   12.4390 H           1 GOX       0.2100
     22 H9          2.5340    9.1142   13.6836 H           1 GOX       0.0603
     23 H10         1.2360    9.9054   11.6435 H           1 GOX       0.0581
     24 H11         0.5363    8.2854   11.5163 H           1 GOX       0.0581
     25 H12         2.3294    8.5780   10.2009 H           1 GOX       0.2095
@<TRIPOS>BOND
     1     1     2   2
     2     1     3   1
     3     1     4   1
     4     2     5   1
     5     3     6   1
     6     3     7   1
     7     4    11   1
     8     7     8   1
     9     7     9   1
    10     9    10   1
    11     9    11   1
    12    11    12   1
    13    12    13   1
    14     3    14   1
    15     4    15   1
    16     5    16   1
    17     6    17   1
    18     7    18   1
    19     8    19   1
    20     9    20   1
    21    10    21   1
    22    11    22   1
    23    12    23   1
    24    12    24   1
    25    13    25   1
@<TRIPOS>SUBSTRUCTURE
     1  GOX      1

