@<TRIPOS>MOLECULE
2j78_ligand_036
    25    25
SMALL
GAST_HUCK
****
This file was generated by PARSER (from files_GN.cpp)

@<TRIPOS>ATOM
      1 C1         -2.2992    6.3765   17.0628 C.2         1 GOX       0.1322
      2 N1         -1.8910    6.1308   18.3245 N.2         1 GOX      -0.2068
      3 C2         -2.3858    7.7713   16.5727 C.3         1 GOX       0.1503
      4 N5         -2.6344    5.3531   16.2430 N.pl3       1 GOX      -0.2990
      5 O7         -1.7438    4.9326   18.8169 O.3         1 GOX      -0.3046
      6 O2         -3.7381    8.1936   16.7218 O.3         1 GOX      -0.3713
      7 C3         -1.9171    7.9004   15.0910 C.3         1 GOX       0.1233
      8 O3         -0.5339    8.2691   15.0603 O.3         1 GOX      -0.3841
      9 C4         -2.1293    6.6258   14.1973 C.3         1 GOX       0.1104
     10 O4         -2.6842    7.0007   12.9332 O.3         1 GOX      -0.3866
     11 C5         -3.0263    5.5432   14.8733 C.3         1 GOX       0.0898
     12 C6         -2.9840    4.1833   14.1256 C.3         1 GOX       0.0694
     13 O6         -4.1916    3.4558   14.3336 O.3         1 GOX      -0.3927
     14 H1         -1.7780    8.4309   17.1937 H           1 GOX       0.0843
     15 H2         -2.6177    4.4511   16.6103 H           1 GOX       0.1812
     16 H3         -2.2777    4.9349   19.6455 H           1 GOX       0.2523
     17 H4         -3.7952    8.4874   17.6650 H           1 GOX       0.2137
     18 H5         -2.4525    8.7447   14.6459 H           1 GOX       0.0673
     19 H6         -0.0603    7.5488   15.5277 H           1 GOX       0.2103
     20 H7         -1.1598    6.1677   13.9916 H           1 GOX       0.0646
     21 H8         -3.5780    7.3817   13.1388 H           1 GOX       0.2100
     22 H9         -4.0536    5.9163   14.8620 H           1 GOX       0.0603
     23 H10        -2.1422    3.5812   14.4817 H           1 GOX       0.0581
     24 H11        -2.8526    4.3355   13.0447 H           1 GOX       0.0581
     25 H12        -4.0150    2.5618   13.9631 H           1 GOX       0.2095
@<TRIPOS>BOND
     1     1     2   2
     2     1     3   1
     3     1     4   1
     4     2     5   1
     5     3     6   1
     6     3     7   1
     7     4    11   1
     8     7     8   1
     9     7     9   1
    10     9    10   1
    11     9    11   1
    12    11    12   1
    13    12    13   1
    14     3    14   1
    15     4    15   1
    16     5    16   1
    17     6    17   1
    18     7    18   1
    19     8    19   1
    20     9    20   1
    21    10    21   1
    22    11    22   1
    23    12    23   1
    24    12    24   1
    25    13    25   1
@<TRIPOS>SUBSTRUCTURE
     1  GOX      1

