@<TRIPOS>MOLECULE
2j78_ligand_054
    25    25
SMALL
GAST_HUCK
****
This file was generated by PARSER (from files_GN.cpp)

@<TRIPOS>ATOM
      1 C1         -0.8139    5.0238    8.5336 C.2         1 GOX       0.1322
      2 N1         -1.9277    5.7749    8.6421 N.2         1 GOX      -0.2068
      3 C2         -0.7661    3.6652    9.1277 C.3         1 GOX       0.1503
      4 N5          0.2398    5.4742    7.8155 N.pl3       1 GOX      -0.2990
      5 O7         -2.1113    6.9697    8.1451 O.3         1 GOX      -0.3046
      6 O2         -0.0313    3.7555   10.3501 O.3         1 GOX      -0.3713
      7 C3         -0.0974    2.6240    8.1671 C.3         1 GOX       0.1233
      8 O3         -1.1069    1.8876    7.4713 O.3         1 GOX      -0.3841
      9 C4          0.9060    3.2347    7.1290 C.3         1 GOX       0.1104
     10 O4          2.0070    2.3416    6.9625 O.3         1 GOX      -0.3866
     11 C5          1.3878    4.6640    7.5306 C.3         1 GOX       0.0898
     12 C6          2.2136    5.3692    6.4251 C.3         1 GOX       0.0694
     13 O6          3.2522    4.5395    5.9275 O.3         1 GOX      -0.3927
     14 H1         -1.7726    3.3282    9.3916 H           1 GOX       0.0843
     15 H2          0.1523    6.3283    7.3701 H           1 GOX       0.1812
     16 H3         -1.3940    7.5159    8.5340 H           1 GOX       0.2523
     17 H4         -0.6176    4.2228   10.9785 H           1 GOX       0.2137
     18 H5          0.4287    1.8928    8.7863 H           1 GOX       0.0673
     19 H6         -1.5039    2.5240    6.8419 H           1 GOX       0.2103
     20 H7          0.4103    3.3228    6.1609 H           1 GOX       0.0646
     21 H8          1.6430    1.5830    6.4467 H           1 GOX       0.2100
     22 H9          2.0074    4.5944    8.4343 H           1 GOX       0.0603
     23 H10         2.6636    6.2808    6.8218 H           1 GOX       0.0581
     24 H11         1.5692    5.6452    5.5869 H           1 GOX       0.0581
     25 H12         3.8350    4.3717    6.6863 H           1 GOX       0.2095
@<TRIPOS>BOND
     1     1     2   2
     2     1     3   1
     3     1     4   1
     4     2     5   1
     5     3     6   1
     6     3     7   1
     7     4    11   1
     8     7     8   1
     9     7     9   1
    10     9    10   1
    11     9    11   1
    12    11    12   1
    13    12    13   1
    14     3    14   1
    15     4    15   1
    16     5    16   1
    17     6    17   1
    18     7    18   1
    19     8    19   1
    20     9    20   1
    21    10    21   1
    22    11    22   1
    23    12    23   1
    24    12    24   1
    25    13    25   1
@<TRIPOS>SUBSTRUCTURE
     1  GOX      1

