@<TRIPOS>MOLECULE
2j78_ligand_057
    25    25
SMALL
GAST_HUCK
****
This file was generated by PARSER (from files_GN.cpp)

@<TRIPOS>ATOM
      1 C1         -1.6899    5.4024   15.6214 C.2         1 GOX       0.1322
      2 N1         -1.4017    4.0962   15.4780 N.2         1 GOX      -0.2068
      3 C2         -1.6908    6.1346   16.9121 C.3         1 GOX       0.1503
      4 N5         -1.9787    6.0829   14.4897 N.pl3       1 GOX      -0.2990
      5 O7         -1.1565    3.2726   16.4609 O.3         1 GOX      -0.3046
      6 O2         -3.0509    6.2649   17.3344 O.3         1 GOX      -0.3713
      7 C3         -1.0135    7.5390   16.7812 C.3         1 GOX       0.1233
      8 O3          0.3669    7.4510   17.1566 O.3         1 GOX      -0.3841
      9 C4         -1.1414    8.2065   15.3668 C.3         1 GOX       0.1104
     10 O4         -1.4530    9.5993   15.4936 O.3         1 GOX      -0.3866
     11 C5         -2.1862    7.4992   14.4524 C.3         1 GOX       0.0898
     12 C6         -2.1895    8.0104   12.9692 C.3         1 GOX       0.0694
     13 O6         -1.4197    7.2114   12.0703 O.3         1 GOX      -0.3927
     14 H1         -1.1796    5.5614   17.6878 H           1 GOX       0.0843
     15 H2         -1.9397    5.5958   13.6528 H           1 GOX       0.1812
     16 H3         -1.9295    3.3582   17.0598 H           1 GOX       0.2523
     17 H4         -3.3599    5.3478   17.5039 H           1 GOX       0.2137
     18 H5         -1.4738    8.1922   17.5218 H           1 GOX       0.0673
     19 H6          0.7463    6.7755   16.5574 H           1 GOX       0.2103
     20 H7         -0.1708    8.1543   14.8624 H           1 GOX       0.0646
     21 H8         -2.3532    9.6314   15.8878 H           1 GOX       0.2100
     22 H9         -3.1727    7.6959   14.8790 H           1 GOX       0.0603
     23 H10        -1.8208    9.0298   12.9008 H           1 GOX       0.0581
     24 H11        -3.2119    8.0154   12.5935 H           1 GOX       0.0581
     25 H12        -0.5181    7.2090   12.4437 H           1 GOX       0.2095
@<TRIPOS>BOND
     1     1     2   2
     2     1     3   1
     3     1     4   1
     4     2     5   1
     5     3     6   1
     6     3     7   1
     7     4    11   1
     8     7     8   1
     9     7     9   1
    10     9    10   1
    11     9    11   1
    12    11    12   1
    13    12    13   1
    14     3    14   1
    15     4    15   1
    16     5    16   1
    17     6    17   1
    18     7    18   1
    19     8    19   1
    20     9    20   1
    21    10    21   1
    22    11    22   1
    23    12    23   1
    24    12    24   1
    25    13    25   1
@<TRIPOS>SUBSTRUCTURE
     1  GOX      1

