@<TRIPOS>MOLECULE
2j78_ligand_009
    25    25
SMALL
GAST_HUCK
****
This file was generated by PARSER (from files_GN.cpp)

@<TRIPOS>ATOM
      1 C1         -1.1979   10.6411    8.6491 C.2         1 GOX       0.1322
      2 N1         -2.1932   11.2469    7.9696 N.2         1 GOX      -0.2068
      3 C2         -0.9229    9.1805    8.5595 C.3         1 GOX       0.1503
      4 N5         -0.4035   11.4696    9.3653 N.pl3       1 GOX      -0.2990
      5 O7         -3.0170   10.6779    7.1323 O.3         1 GOX      -0.3046
      6 O2         -2.1224    8.4117    8.6846 O.3         1 GOX      -0.3713
      7 C3          0.0506    8.6948    9.6686 C.3         1 GOX       0.1233
      8 O3          0.4654    7.3555    9.3956 O.3         1 GOX      -0.3841
      9 C4          1.2779    9.6320    9.7832 C.3         1 GOX       0.1104
     10 O4          2.1087    9.1686   10.8524 O.3         1 GOX      -0.3866
     11 C5          0.8183   11.1068   10.0224 C.3         1 GOX       0.0898
     12 C6          1.9057   12.1301    9.5989 C.3         1 GOX       0.0694
     13 O6          2.2155   12.0474    8.2076 O.3         1 GOX      -0.3927
     14 H1         -0.4823    8.9807    7.5797 H           1 GOX       0.0843
     15 H2         -0.6585   12.4063    9.4157 H           1 GOX       0.1812
     16 H3         -2.4522   10.3370    6.4052 H           1 GOX       0.2523
     17 H4         -2.6253    8.5532    7.8557 H           1 GOX       0.2137
     18 H5         -0.4787    8.6925   10.6276 H           1 GOX       0.0673
     19 H6          1.0114    7.0913   10.1642 H           1 GOX       0.2103
     20 H7          1.8543    9.5583    8.8547 H           1 GOX       0.0646
     21 H8          2.4894    9.9666   11.2802 H           1 GOX       0.2100
     22 H9          0.6348   11.2412   11.0928 H           1 GOX       0.0603
     23 H10         2.8175   11.9580   10.1706 H           1 GOX       0.0581
     24 H11         1.5552   13.1449    9.8105 H           1 GOX       0.0581
     25 H12         2.7776   12.8316    8.0262 H           1 GOX       0.2095
@<TRIPOS>BOND
     1     1     2   2
     2     1     3   1
     3     1     4   1
     4     2     5   1
     5     3     6   1
     6     3     7   1
     7     4    11   1
     8     7     8   1
     9     7     9   1
    10     9    10   1
    11     9    11   1
    12    11    12   1
    13    12    13   1
    14     3    14   1
    15     4    15   1
    16     5    16   1
    17     6    17   1
    18     7    18   1
    19     8    19   1
    20     9    20   1
    21    10    21   1
    22    11    22   1
    23    12    23   1
    24    12    24   1
    25    13    25   1
@<TRIPOS>SUBSTRUCTURE
     1  GOX      1

