@<TRIPOS>MOLECULE
2j78_ligand_032
    25    25
SMALL
GAST_HUCK
****
This file was generated by PARSER (from files_GN.cpp)

@<TRIPOS>ATOM
      1 C1         -0.4815    4.9833   16.9954 C.2         1 GOX       0.1322
      2 N1         -0.0701    3.7046   17.1427 N.2         1 GOX      -0.2068
      3 C2          0.4695    6.0150   16.5106 C.3         1 GOX       0.1503
      4 N5         -1.7724    5.3336   17.2326 N.pl3       1 GOX      -0.2990
      5 O7         -0.8311    2.7218   17.5395 O.3         1 GOX      -0.3046
      6 O2          0.8825    6.8147   17.6202 O.3         1 GOX      -0.3713
      7 C3         -0.1862    6.9275   15.4240 C.3         1 GOX       0.1233
      8 O3          0.1117    6.3804   14.1321 O.3         1 GOX      -0.3841
      9 C4         -1.7429    7.1199   15.5737 C.3         1 GOX       0.1104
     10 O4         -2.0938    8.4711   15.2739 O.3         1 GOX      -0.3866
     11 C5         -2.2683    6.6623   16.9796 C.3         1 GOX       0.0898
     12 C6         -3.8132    6.6753   17.1098 C.3         1 GOX       0.0694
     13 O6         -4.3396    7.9940   17.2219 O.3         1 GOX      -0.3927
     14 H1          1.3723    5.5445   16.1072 H           1 GOX       0.0843
     15 H2         -2.3951    4.6471   17.5197 H           1 GOX       0.1812
     16 H3         -0.9241    2.8457   18.5071 H           1 GOX       0.2523
     17 H4          1.3013    6.1953   18.2518 H           1 GOX       0.2137
     18 H5          0.3076    7.9065   15.4630 H           1 GOX       0.0673
     19 H6         -0.2152    7.0396   13.4841 H           1 GOX       0.2103
     20 H7         -2.2336    6.4950   14.8271 H           1 GOX       0.0646
     21 H8         -3.0725    8.4898   15.2070 H           1 GOX       0.2100
     22 H9         -1.8518    7.3139   17.7498 H           1 GOX       0.0603
     23 H10        -4.1310    6.1140   17.9903 H           1 GOX       0.0581
     24 H11        -4.2610    6.2085   16.2294 H           1 GOX       0.0581
     25 H12        -3.9130    8.3581   18.0226 H           1 GOX       0.2095
@<TRIPOS>BOND
     1     1     2   2
     2     1     3   1
     3     1     4   1
     4     2     5   1
     5     3     6   1
     6     3     7   1
     7     4    11   1
     8     7     8   1
     9     7     9   1
    10     9    10   1
    11     9    11   1
    12    11    12   1
    13    12    13   1
    14     3    14   1
    15     4    15   1
    16     5    16   1
    17     6    17   1
    18     7    18   1
    19     8    19   1
    20     9    20   1
    21    10    21   1
    22    11    22   1
    23    12    23   1
    24    12    24   1
    25    13    25   1
@<TRIPOS>SUBSTRUCTURE
     1  GOX      1

