@<TRIPOS>MOLECULE
2j78_ligand_053
    25    25
SMALL
GAST_HUCK
****
This file was generated by PARSER (from files_GN.cpp)

@<TRIPOS>ATOM
      1 C1         -2.8522    7.9154   16.6519 C.2         1 GOX       0.1322
      2 N1         -4.0731    8.0797   17.1928 N.2         1 GOX      -0.2068
      3 C2         -2.1013    6.6406   16.8277 C.3         1 GOX       0.1503
      4 N5         -2.3259    8.9974   16.0264 N.pl3       1 GOX      -0.2990
      5 O7         -4.6553    7.1914   17.9380 O.3         1 GOX      -0.3046
      6 O2         -1.7959    6.4827   18.2141 O.3         1 GOX      -0.3713
      7 C3         -0.8015    6.5795   15.9751 C.3         1 GOX       0.1233
      8 O3         -1.1061    6.1507   14.6445 O.3         1 GOX      -0.3841
      9 C4         -0.0642    7.9415   15.9640 C.3         1 GOX       0.1104
     10 O4          0.4425    8.1972   17.2777 O.3         1 GOX      -0.3866
     11 C5         -0.9875    9.1229   15.5222 C.3         1 GOX       0.0898
     12 C6         -1.0624    9.3721   13.9891 C.3         1 GOX       0.0694
     13 O6          0.2222    9.4112   13.3748 O.3         1 GOX      -0.3927
     14 H1         -2.7442    5.8066   16.5345 H           1 GOX       0.0843
     15 H2         -2.9022    9.7778   15.9432 H           1 GOX       0.1812
     16 H3         -5.2143    7.7185   18.5521 H           1 GOX       0.2523
     17 H4         -1.5141    5.5498   18.3133 H           1 GOX       0.2137
     18 H5         -0.1320    5.8196   16.3911 H           1 GOX       0.0673
     19 H6         -1.9587    6.5760   14.4257 H           1 GOX       0.2103
     20 H7          0.8083    7.8761   15.3155 H           1 GOX       0.0646
     21 H8         -0.3426    8.4210   17.8321 H           1 GOX       0.2100
     22 H9         -0.5856   10.0395   15.9569 H           1 GOX       0.0603
     23 H10        -1.5478   10.3335   13.8021 H           1 GOX       0.0581
     24 H11        -1.6494    8.6012   13.4997 H           1 GOX       0.0581
     25 H12         0.6066   10.2871   13.6067 H           1 GOX       0.2095
@<TRIPOS>BOND
     1     1     2   2
     2     1     3   1
     3     1     4   1
     4     2     5   1
     5     3     6   1
     6     3     7   1
     7     4    11   1
     8     7     8   1
     9     7     9   1
    10     9    10   1
    11     9    11   1
    12    11    12   1
    13    12    13   1
    14     3    14   1
    15     4    15   1
    16     5    16   1
    17     6    17   1
    18     7    18   1
    19     8    19   1
    20     9    20   1
    21    10    21   1
    22    11    22   1
    23    12    23   1
    24    12    24   1
    25    13    25   1
@<TRIPOS>SUBSTRUCTURE
     1  GOX      1

