@<TRIPOS>MOLECULE
2j78_ligand_038
    25    25
SMALL
GAST_HUCK
****
This file was generated by PARSER (from files_GN.cpp)

@<TRIPOS>ATOM
      1 C1         -0.0336   10.0170   11.6587 C.2         1 GOX       0.1322
      2 N1         -0.2612    9.7637   12.9666 N.2         1 GOX      -0.2068
      3 C2         -0.4201   11.3357   11.0986 C.3         1 GOX       0.1503
      4 N5          0.5841    9.1137   10.8634 N.pl3       1 GOX      -0.2990
      5 O7          0.1155    8.6597   13.5589 O.3         1 GOX      -0.3046
      6 O2         -1.6670   11.1848   10.4228 O.3         1 GOX      -0.3713
      7 C3          0.6408   11.8996   10.0934 C.3         1 GOX       0.1233
      8 O3          1.5343   12.8041   10.7454 O.3         1 GOX      -0.3841
      9 C4          1.5009   10.8051    9.3698 C.3         1 GOX       0.1104
     10 O4          1.6540   11.1715    7.9989 O.3         1 GOX      -0.3866
     11 C5          0.8977    9.3771    9.4872 C.3         1 GOX       0.0898
     12 C6          1.8355    8.2713    8.9196 C.3         1 GOX       0.0694
     13 O6          1.0830    7.1580    8.4332 O.3         1 GOX      -0.3927
     14 H1         -0.5813   12.0614   11.8968 H           1 GOX       0.0843
     15 H2          0.8605    8.2738   11.2544 H           1 GOX       0.1812
     16 H3          0.7844    8.9588   14.2213 H           1 GOX       0.2523
     17 H4         -1.6628   10.2912   10.0134 H           1 GOX       0.2137
     18 H5          0.1063   12.4912    9.3439 H           1 GOX       0.0673
     19 H6          1.0898   13.6774   10.6961 H           1 GOX       0.2103
     20 H7          2.4919   10.7778    9.8287 H           1 GOX       0.0646
     21 H8          0.7392   11.3234    7.6668 H           1 GOX       0.2100
     22 H9         -0.0273    9.3599    8.9077 H           1 GOX       0.0603
     23 H10         2.5099    7.9087    9.7032 H           1 GOX       0.0581
     24 H11         2.4582    8.6402    8.0963 H           1 GOX       0.0581
     25 H12         0.5165    7.4925    7.7161 H           1 GOX       0.2095
@<TRIPOS>BOND
     1     1     2   2
     2     1     3   1
     3     1     4   1
     4     2     5   1
     5     3     6   1
     6     3     7   1
     7     4    11   1
     8     7     8   1
     9     7     9   1
    10     9    10   1
    11     9    11   1
    12    11    12   1
    13    12    13   1
    14     3    14   1
    15     4    15   1
    16     5    16   1
    17     6    17   1
    18     7    18   1
    19     8    19   1
    20     9    20   1
    21    10    21   1
    22    11    22   1
    23    12    23   1
    24    12    24   1
    25    13    25   1
@<TRIPOS>SUBSTRUCTURE
     1  GOX      1

