@<TRIPOS>MOLECULE
2j78_ligand_007
    25    25
SMALL
GAST_HUCK
****
This file was generated by PARSER (from files_GN.cpp)

@<TRIPOS>ATOM
      1 C1          0.4692   11.1627    8.3208 C.2         1 GOX       0.1322
      2 N1          1.0288   12.0541    7.4758 N.2         1 GOX      -0.2068
      3 C2          0.7443    9.7267    8.0802 C.3         1 GOX       0.1503
      4 N5         -0.2713   11.5865    9.3787 N.pl3       1 GOX      -0.2990
      5 O7          0.9050   13.3487    7.5349 O.3         1 GOX      -0.3046
      6 O2          0.6669    9.4221    6.6902 O.3         1 GOX      -0.3713
      7 C3         -0.2267    8.7982    8.8691 C.3         1 GOX       0.1233
      8 O3          0.2019    7.4419    8.8096 O.3         1 GOX      -0.3841
      9 C4         -0.3248    9.2612   10.3423 C.3         1 GOX       0.1104
     10 O4         -1.2354    8.3855   11.0221 O.3         1 GOX      -0.3866
     11 C5         -0.8046   10.7522   10.4190 C.3         1 GOX       0.0898
     12 C6         -0.4355   11.3996   11.7823 C.3         1 GOX       0.0694
     13 O6         -0.7069   10.5457   12.9008 O.3         1 GOX      -0.3927
     14 H1          1.7731    9.5309    8.4028 H           1 GOX       0.0843
     15 H2         -0.4303   12.5390    9.4588 H           1 GOX       0.1812
     16 H3          1.2921   13.6567    6.6882 H           1 GOX       0.2523
     17 H4         -0.2545    9.6117    6.4093 H           1 GOX       0.2137
     18 H5         -1.2271    8.8511    8.4214 H           1 GOX       0.0673
     19 H6         -0.0726    7.1314    7.9208 H           1 GOX       0.2103
     20 H7          0.6630    9.1587   10.8018 H           1 GOX       0.0646
     21 H8         -1.2675    8.7010   11.9475 H           1 GOX       0.2100
     22 H9         -1.8877   10.7578   10.3104 H           1 GOX       0.0603
     23 H10        -1.0084   12.3249   11.9190 H           1 GOX       0.0581
     24 H11         0.6316   11.6524   11.7829 H           1 GOX       0.0581
     25 H12        -0.0971   10.8700   13.5994 H           1 GOX       0.2095
@<TRIPOS>BOND
     1     1     2   2
     2     1     3   1
     3     1     4   1
     4     2     5   1
     5     3     6   1
     6     3     7   1
     7     4    11   1
     8     7     8   1
     9     7     9   1
    10     9    10   1
    11     9    11   1
    12    11    12   1
    13    12    13   1
    14     3    14   1
    15     4    15   1
    16     5    16   1
    17     6    17   1
    18     7    18   1
    19     8    19   1
    20     9    20   1
    21    10    21   1
    22    11    22   1
    23    12    23   1
    24    12    24   1
    25    13    25   1
@<TRIPOS>SUBSTRUCTURE
     1  GOX      1

