@<TRIPOS>MOLECULE
2j78_ligand_055
    25    25
SMALL
GAST_HUCK
****
This file was generated by PARSER (from files_GN.cpp)

@<TRIPOS>ATOM
      1 C1         -2.6646    6.0101   14.5266 C.2         1 GOX       0.1322
      2 N1         -2.8582    5.0378   13.6182 N.2         1 GOX      -0.2068
      3 C2         -2.6346    5.7367   15.9883 C.3         1 GOX       0.1503
      4 N5         -2.6068    7.2711   14.0391 N.pl3       1 GOX      -0.2990
      5 O7         -2.9716    3.7703   13.9143 O.3         1 GOX      -0.3046
      6 O2         -3.9852    5.4794   16.3725 O.3         1 GOX      -0.3713
      7 C3         -1.9856    6.8906   16.7994 C.3         1 GOX       0.1233
      8 O3         -0.5649    6.8625   16.6380 O.3         1 GOX      -0.3841
      9 C4         -2.5207    8.2775   16.3566 C.3         1 GOX       0.1104
     10 O4         -3.8644    8.4369   16.8235 O.3         1 GOX      -0.3866
     11 C5         -2.4660    8.4794   14.8043 C.3         1 GOX       0.0898
     12 C6         -1.1972    9.2291   14.3170 C.3         1 GOX       0.0694
     13 O6         -1.1712   10.5612   14.8334 O.3         1 GOX      -0.3927
     14 H1         -2.0669    4.8219   16.1765 H           1 GOX       0.0843
     15 H2         -2.6752    7.3709   13.0779 H           1 GOX       0.1812
     16 H3         -3.7851    3.4864   13.4569 H           1 GOX       0.2523
     17 H4         -4.1798    6.0421   17.1503 H           1 GOX       0.2137
     18 H5         -2.1996    6.7507   17.8645 H           1 GOX       0.0673
     19 H6         -0.2061    6.5722   17.5053 H           1 GOX       0.2103
     20 H7         -1.9296    9.0515   16.8536 H           1 GOX       0.0646
     21 H8         -3.7916    8.4336   17.7990 H           1 GOX       0.2100
     22 H9         -3.3177    9.0996   14.5232 H           1 GOX       0.0603
     23 H10        -1.1967    9.2986   13.2261 H           1 GOX       0.0581
     24 H11        -0.2929    8.7074   14.6337 H           1 GOX       0.0581
     25 H12        -0.3634   10.9745   14.4588 H           1 GOX       0.2095
@<TRIPOS>BOND
     1     1     2   2
     2     1     3   1
     3     1     4   1
     4     2     5   1
     5     3     6   1
     6     3     7   1
     7     4    11   1
     8     7     8   1
     9     7     9   1
    10     9    10   1
    11     9    11   1
    12    11    12   1
    13    12    13   1
    14     3    14   1
    15     4    15   1
    16     5    16   1
    17     6    17   1
    18     7    18   1
    19     8    19   1
    20     9    20   1
    21    10    21   1
    22    11    22   1
    23    12    23   1
    24    12    24   1
    25    13    25   1
@<TRIPOS>SUBSTRUCTURE
     1  GOX      1

