@<TRIPOS>MOLECULE
2j78_ligand_020
    25    25
SMALL
GAST_HUCK
****
This file was generated by PARSER (from files_GN.cpp)

@<TRIPOS>ATOM
      1 C1         -1.4321    8.9586   14.4598 C.2         1 GOX       0.1322
      2 N1         -1.0024   10.0212   13.7322 N.2         1 GOX      -0.2068
      3 C2         -2.4727    9.1796   15.5017 C.3         1 GOX       0.1503
      4 N5         -0.9386    7.7257   14.1906 N.pl3       1 GOX      -0.2990
      5 O7         -0.1084    9.9148   12.7792 O.3         1 GOX      -0.3046
      6 O2         -2.1651   10.3190   16.3068 O.3         1 GOX      -0.3713
      7 C3         -2.6324    7.9744   16.4541 C.3         1 GOX       0.1233
      8 O3         -3.8698    8.1100   17.1658 O.3         1 GOX      -0.3841
      9 C4         -2.5983    6.6250   15.6803 C.3         1 GOX       0.1104
     10 O4         -2.6966    5.5256   16.5930 O.3         1 GOX      -0.3866
     11 C5         -1.2738    6.5109   14.8657 C.3         1 GOX       0.0898
     12 C6         -1.3157    5.3553   13.8361 C.3         1 GOX       0.0694
     13 O6         -2.3903    5.4738   12.9121 O.3         1 GOX      -0.3927
     14 H1         -3.4159    9.3495   14.9855 H           1 GOX       0.0843
     15 H2         -0.2423    7.6707   13.5017 H           1 GOX       0.1812
     16 H3          0.5771   10.5794   12.9987 H           1 GOX       0.2523
     17 H4         -2.6775   11.0697   15.9241 H           1 GOX       0.2137
     18 H5         -1.8133    7.9817   17.1760 H           1 GOX       0.0673
     19 H6         -3.8153    7.4665   17.9140 H           1 GOX       0.2103
     20 H7         -3.4547    6.5970   15.0071 H           1 GOX       0.0646
     21 H8         -3.6731    5.3364   16.6672 H           1 GOX       0.2100
     22 H9         -0.4503    6.3110   15.5599 H           1 GOX       0.0603
     23 H10        -1.4215    4.3957   14.3707 H           1 GOX       0.0581
     24 H11        -0.3857    5.3166   13.2653 H           1 GOX       0.0581
     25 H12        -2.2521    6.3238   12.4586 H           1 GOX       0.2095
@<TRIPOS>BOND
     1     1     2   2
     2     1     3   1
     3     1     4   1
     4     2     5   1
     5     3     6   1
     6     3     7   1
     7     4    11   1
     8     7     8   1
     9     7     9   1
    10     9    10   1
    11     9    11   1
    12    11    12   1
    13    12    13   1
    14     3    14   1
    15     4    15   1
    16     5    16   1
    17     6    17   1
    18     7    18   1
    19     8    19   1
    20     9    20   1
    21    10    21   1
    22    11    22   1
    23    12    23   1
    24    12    24   1
    25    13    25   1
@<TRIPOS>SUBSTRUCTURE
     1  GOX      1

