@<TRIPOS>MOLECULE
2j78_ligand_064
    25    25
SMALL
GAST_HUCK
****
This file was generated by PARSER (from files_GN.cpp)

@<TRIPOS>ATOM
      1 C1         -0.2700    9.2047   10.9836 C.2         1 GOX       0.1322
      2 N1         -0.0885    8.6647    9.7606 N.2         1 GOX      -0.2068
      3 C2         -1.2845   10.2642   11.2461 C.3         1 GOX       0.1503
      4 N5          0.4731    8.6658   11.9820 N.pl3       1 GOX      -0.2990
      5 O7         -0.7402    9.0250    8.6900 O.3         1 GOX      -0.3046
      6 O2         -1.2519   11.2933   10.2565 O.3         1 GOX      -0.3713
      7 C3         -1.1081   10.9204   12.6449 C.3         1 GOX       0.1233
      8 O3         -2.2327   11.7286   12.9829 O.3         1 GOX      -0.3841
      9 C4         -0.8842    9.8395   13.7300 C.3         1 GOX       0.1104
     10 O4         -0.7648   10.4469   15.0172 O.3         1 GOX      -0.3866
     11 C5          0.3862    9.0058   13.3773 C.3         1 GOX       0.0898
     12 C6          0.4894    7.7180   14.2372 C.3         1 GOX       0.0694
     13 O6         -0.5750    6.8070   13.9711 O.3         1 GOX      -0.3927
     14 H1         -2.2680    9.7906   11.1885 H           1 GOX       0.0843
     15 H2          1.1314    7.9966   11.7304 H           1 GOX       0.1812
     16 H3         -0.4720    8.3929    7.9903 H           1 GOX       0.2523
     17 H4         -0.3504   11.6795   10.3008 H           1 GOX       0.2137
     18 H5         -0.2394   11.5836   12.6178 H           1 GOX       0.0673
     19 H6         -3.0004   11.1173   12.9998 H           1 GOX       0.2103
     20 H7         -1.7606    9.1856   13.7545 H           1 GOX       0.0646
     21 H8         -0.0444   11.1032   14.9197 H           1 GOX       0.2100
     22 H9          1.2675    9.6152   13.5998 H           1 GOX       0.0603
     23 H10         0.4647    7.9751   15.2986 H           1 GOX       0.0581
     24 H11         1.4371    7.2119   14.0374 H           1 GOX       0.0581
     25 H12        -0.4826    6.5698   13.0241 H           1 GOX       0.2095
@<TRIPOS>BOND
     1     1     2   2
     2     1     3   1
     3     1     4   1
     4     2     5   1
     5     3     6   1
     6     3     7   1
     7     4    11   1
     8     7     8   1
     9     7     9   1
    10     9    10   1
    11     9    11   1
    12    11    12   1
    13    12    13   1
    14     3    14   1
    15     4    15   1
    16     5    16   1
    17     6    17   1
    18     7    18   1
    19     8    19   1
    20     9    20   1
    21    10    21   1
    22    11    22   1
    23    12    23   1
    24    12    24   1
    25    13    25   1
@<TRIPOS>SUBSTRUCTURE
     1  GOX      1

