@<TRIPOS>MOLECULE
2j78_ligand_056
    25    25
SMALL
GAST_HUCK
****
This file was generated by PARSER (from files_GN.cpp)

@<TRIPOS>ATOM
      1 C1         -2.8667    7.1220   14.7809 C.2         1 GOX       0.1322
      2 N1         -3.9940    7.2665   15.5085 N.2         1 GOX      -0.2068
      3 C2         -2.8023    6.0150   13.7924 C.3         1 GOX       0.1503
      4 N5         -1.8582    8.0202   14.9165 N.pl3       1 GOX      -0.2990
      5 O7         -4.2110    8.1612   16.4369 O.3         1 GOX      -0.3046
      6 O2         -3.2774    4.7966   14.3680 O.3         1 GOX      -0.3713
      7 C3         -1.3639    5.7887   13.2496 C.3         1 GOX       0.1233
      8 O3         -1.4077    4.8982   12.1345 O.3         1 GOX      -0.3841
      9 C4         -0.7129    7.1399   12.8609 C.3         1 GOX       0.1104
     10 O4          0.6021    6.8885   12.3608 O.3         1 GOX      -0.3866
     11 C5         -0.6771    8.0932   14.1013 C.3         1 GOX       0.0898
     12 C6         -0.4643    9.5812   13.7139 C.3         1 GOX       0.0694
     13 O6          0.3650    9.7137   12.5657 O.3         1 GOX      -0.3927
     14 H1         -3.4687    6.2689   12.9638 H           1 GOX       0.0843
     15 H2         -1.9540    8.6917   15.6099 H           1 GOX       0.1812
     16 H3         -3.4940    8.0568   17.0985 H           1 GOX       0.2523
     17 H4         -2.6743    4.6091   15.1187 H           1 GOX       0.2137
     18 H5         -0.7552    5.3158   14.0273 H           1 GOX       0.0673
     19 H6         -0.4730    4.6747   11.9387 H           1 GOX       0.2103
     20 H7         -1.3032    7.5916   12.0568 H           1 GOX       0.0646
     21 H8          0.9194    7.7444   12.0072 H           1 GOX       0.2100
     22 H9          0.1581    7.7942   14.7417 H           1 GOX       0.0603
     23 H10         0.0202   10.1084   14.5391 H           1 GOX       0.0581
     24 H11        -1.4238   10.0630   13.5127 H           1 GOX       0.0581
     25 H12         0.9807   10.4489   12.7670 H           1 GOX       0.2095
@<TRIPOS>BOND
     1     1     2   2
     2     1     3   1
     3     1     4   1
     4     2     5   1
     5     3     6   1
     6     3     7   1
     7     4    11   1
     8     7     8   1
     9     7     9   1
    10     9    10   1
    11     9    11   1
    12    11    12   1
    13    12    13   1
    14     3    14   1
    15     4    15   1
    16     5    16   1
    17     6    17   1
    18     7    18   1
    19     8    19   1
    20     9    20   1
    21    10    21   1
    22    11    22   1
    23    12    23   1
    24    12    24   1
    25    13    25   1
@<TRIPOS>SUBSTRUCTURE
     1  GOX      1

