@<TRIPOS>MOLECULE
2j78_ligand_035
    25    25
SMALL
GAST_HUCK
****
This file was generated by PARSER (from files_GN.cpp)

@<TRIPOS>ATOM
      1 C1          1.1571   10.5864   10.2692 C.2         1 GOX       0.1322
      2 N1          1.9532   11.6538   10.0532 N.2         1 GOX      -0.2068
      3 C2         -0.1332   10.6432   11.0068 C.3         1 GOX       0.1503
      4 N5          1.5426    9.4061    9.7235 N.pl3       1 GOX      -0.2990
      5 O7          1.7525   12.8809   10.4558 O.3         1 GOX      -0.3046
      6 O2          0.0482   10.0263   12.2824 O.3         1 GOX      -0.3713
      7 C3         -1.2455    9.8948   10.2018 C.3         1 GOX       0.1233
      8 O3         -1.8609   10.8295    9.3113 O.3         1 GOX      -0.3841
      9 C4         -0.7387    8.6369    9.3991 C.3         1 GOX       0.1104
     10 O4         -1.6133    7.5283    9.5889 O.3         1 GOX      -0.3866
     11 C5          0.7207    8.2300    9.7758 C.3         1 GOX       0.0898
     12 C6          1.3219    7.0979    8.8989 C.3         1 GOX       0.0694
     13 O6          1.5155    7.4929    7.5457 O.3         1 GOX      -0.3927
     14 H1         -0.4370   11.6741   11.1985 H           1 GOX       0.0843
     15 H2          2.3568    9.3808    9.1981 H           1 GOX       0.1812
     16 H3          0.7963   13.0758   10.3378 H           1 GOX       0.2523
     17 H4          0.7529   10.5450   12.7268 H           1 GOX       0.2137
     18 H5         -2.0264    9.5909   10.9040 H           1 GOX       0.0673
     19 H6         -2.5096   10.3120    8.7913 H           1 GOX       0.2103
     20 H7         -0.7540    8.8729    8.3304 H           1 GOX       0.0646
     21 H8         -2.4836    7.8350    9.2565 H           1 GOX       0.2100
     22 H9          0.7164    7.8635   10.8076 H           1 GOX       0.0603
     23 H10         0.6759    6.2182    8.9193 H           1 GOX       0.0581
     24 H11         2.2947    6.8082    9.3003 H           1 GOX       0.0581
     25 H12         0.6158    7.5864    7.1733 H           1 GOX       0.2095
@<TRIPOS>BOND
     1     1     2   2
     2     1     3   1
     3     1     4   1
     4     2     5   1
     5     3     6   1
     6     3     7   1
     7     4    11   1
     8     7     8   1
     9     7     9   1
    10     9    10   1
    11     9    11   1
    12    11    12   1
    13    12    13   1
    14     3    14   1
    15     4    15   1
    16     5    16   1
    17     6    17   1
    18     7    18   1
    19     8    19   1
    20     9    20   1
    21    10    21   1
    22    11    22   1
    23    12    23   1
    24    12    24   1
    25    13    25   1
@<TRIPOS>SUBSTRUCTURE
     1  GOX      1

