@<TRIPOS>MOLECULE
2j78_ligand_006
    25    25
SMALL
GAST_HUCK
****
This file was generated by PARSER (from files_GN.cpp)

@<TRIPOS>ATOM
      1 C1          0.0550   11.5609    9.8415 C.2         1 GOX       0.1322
      2 N1          0.8015   12.0605   10.8449 N.2         1 GOX      -0.2068
      3 C2          0.2046   12.0278    8.4354 C.3         1 GOX       0.1503
      4 N5         -0.8500   10.6268   10.2143 N.pl3       1 GOX      -0.2990
      5 O7          1.7351   12.9596   10.7137 O.3         1 GOX      -0.3046
      6 O2         -0.3153   13.3521    8.3086 O.3         1 GOX      -0.3713
      7 C3         -0.5017   11.0961    7.4104 C.3         1 GOX       0.1233
      8 O3          0.3590   10.0041    7.0999 O.3         1 GOX      -0.3841
      9 C4         -1.8721   10.5768    7.9268 C.3         1 GOX       0.1104
     10 O4         -2.7838   11.6769    7.9518 O.3         1 GOX      -0.3866
     11 C5         -1.7779    9.9514    9.3575 C.3         1 GOX       0.0898
     12 C6         -1.5003    8.4217    9.3983 C.3         1 GOX       0.0694
     13 O6         -0.1868    8.0487    8.9948 O.3         1 GOX      -0.3927
     14 H1          1.2683   12.0705    8.1850 H           1 GOX       0.0843
     15 H2         -0.8677   10.3832   11.1535 H           1 GOX       0.1812
     16 H3          1.2582   13.8124   10.7239 H           1 GOX       0.2523
     17 H4          0.2136   13.9156    8.9137 H           1 GOX       0.2137
     18 H5         -0.6550   11.6397    6.4733 H           1 GOX       0.0673
     19 H6         -0.1797    9.4257    6.5239 H           1 GOX       0.2103
     20 H7         -2.2767    9.8485    7.2176 H           1 GOX       0.0646
     21 H8         -3.6572   11.2887    8.1688 H           1 GOX       0.2100
     22 H9         -2.7592   10.0769    9.8271 H           1 GOX       0.0603
     23 H10        -2.2208    7.8920    8.7723 H           1 GOX       0.0581
     24 H11        -1.6294    8.0679   10.4230 H           1 GOX       0.0581
     25 H12        -0.2594    7.8632    8.0350 H           1 GOX       0.2095
@<TRIPOS>BOND
     1     1     2   2
     2     1     3   1
     3     1     4   1
     4     2     5   1
     5     3     6   1
     6     3     7   1
     7     4    11   1
     8     7     8   1
     9     7     9   1
    10     9    10   1
    11     9    11   1
    12    11    12   1
    13    12    13   1
    14     3    14   1
    15     4    15   1
    16     5    16   1
    17     6    17   1
    18     7    18   1
    19     8    19   1
    20     9    20   1
    21    10    21   1
    22    11    22   1
    23    12    23   1
    24    12    24   1
    25    13    25   1
@<TRIPOS>SUBSTRUCTURE
     1  GOX      1

