@<TRIPOS>MOLECULE
2j78_ligand_014
    25    25
SMALL
GAST_HUCK
****
This file was generated by PARSER (from files_GN.cpp)

@<TRIPOS>ATOM
      1 C1         -0.1096    7.2228   14.8169 C.2         1 GOX       0.1322
      2 N1          0.7236    6.2356   14.4246 N.2         1 GOX      -0.2068
      3 C2         -0.0461    8.5202   14.0961 C.3         1 GOX       0.1503
      4 N5         -0.9976    6.9855   15.8156 N.pl3       1 GOX      -0.2990
      5 O7          0.7536    5.0460   14.9617 O.3         1 GOX      -0.3046
      6 O2          1.3222    8.9208   14.0014 O.3         1 GOX      -0.3713
      7 C3         -0.8819    9.6472   14.7785 C.3         1 GOX       0.1233
      8 O3         -1.1265   10.7057   13.8481 O.3         1 GOX      -0.3841
      9 C4         -2.2307    9.0983   15.3118 C.3         1 GOX       0.1104
     10 O4         -2.9829   10.1438   15.9305 O.3         1 GOX      -0.3866
     11 C5         -1.9718    7.9159   16.3013 C.3         1 GOX       0.0898
     12 C6         -3.2793    7.1505   16.6319 C.3         1 GOX       0.0694
     13 O6         -4.2887    8.0084   17.1417 O.3         1 GOX      -0.3927
     14 H1         -0.4213    8.3575   13.0843 H           1 GOX       0.0843
     15 H2         -0.9502    6.1179   16.2558 H           1 GOX       0.1812
     16 H3          1.4779    4.5812   14.4876 H           1 GOX       0.2523
     17 H4          1.3378    9.7386   13.4642 H           1 GOX       0.2137
     18 H5         -0.3196   10.0661   15.6167 H           1 GOX       0.0673
     19 H6         -0.2453   11.0884   13.6548 H           1 GOX       0.2103
     20 H7         -2.8115    8.7389   14.4596 H           1 GOX       0.0646
     21 H8         -3.0248    9.9242   16.8843 H           1 GOX       0.2100
     22 H9         -1.5725    8.3218   17.2346 H           1 GOX       0.0603
     23 H10        -3.0846    6.3860   17.3829 H           1 GOX       0.0581
     24 H11        -3.6622    6.6722   15.7264 H           1 GOX       0.0581
     25 H12        -3.9677    8.2931   18.0197 H           1 GOX       0.2095
@<TRIPOS>BOND
     1     1     2   2
     2     1     3   1
     3     1     4   1
     4     2     5   1
     5     3     6   1
     6     3     7   1
     7     4    11   1
     8     7     8   1
     9     7     9   1
    10     9    10   1
    11     9    11   1
    12    11    12   1
    13    12    13   1
    14     3    14   1
    15     4    15   1
    16     5    16   1
    17     6    17   1
    18     7    18   1
    19     8    19   1
    20     9    20   1
    21    10    21   1
    22    11    22   1
    23    12    23   1
    24    12    24   1
    25    13    25   1
@<TRIPOS>SUBSTRUCTURE
     1  GOX      1

