@<TRIPOS>MOLECULE
2j78_ligand_061
    25    25
SMALL
GAST_HUCK
****
This file was generated by PARSER (from files_GN.cpp)

@<TRIPOS>ATOM
      1 C1          0.4383    7.0620   16.0043 C.2         1 GOX       0.1322
      2 N1          0.6852    6.6267   17.2593 N.2         1 GOX      -0.2068
      3 C2          0.7347    6.2785   14.7759 C.3         1 GOX       0.1503
      4 N5         -0.1754    8.2620   15.8979 N.pl3       1 GOX      -0.2990
      5 O7          1.2191    5.4770   17.5551 O.3         1 GOX      -0.3046
      6 O2          1.9537    6.7587   14.2066 O.3         1 GOX      -0.3713
      7 C3         -0.4334    6.3643   13.7391 C.3         1 GOX       0.1233
      8 O3         -1.3022    5.2425   13.9255 O.3         1 GOX      -0.3841
      9 C4         -1.2691    7.6962   13.7839 C.3         1 GOX       0.1104
     10 O4         -1.5164    8.1470   12.4505 O.3         1 GOX      -0.3866
     11 C5         -0.5880    8.8154   14.6380 C.3         1 GOX       0.0898
     12 C6         -1.5063   10.0424   14.8833 C.3         1 GOX       0.0694
     13 O6         -0.9079   10.9805   15.7716 O.3         1 GOX      -0.3927
     14 H1          0.9152    5.2292   15.0175 H           1 GOX       0.0843
     15 H2         -0.4093    8.7326   16.7142 H           1 GOX       0.1812
     16 H3          2.1744    5.5817   17.3572 H           1 GOX       0.2523
     17 H4          1.7731    7.6714   13.9021 H           1 GOX       0.2137
     18 H5         -0.0001    6.2413   12.7434 H           1 GOX       0.0673
     19 H6         -1.6603    5.3386   14.8334 H           1 GOX       0.2103
     20 H7         -2.2434    7.4797   14.2346 H           1 GOX       0.0646
     21 H8         -2.1377    8.8990   12.5393 H           1 GOX       0.2100
     22 H9          0.3017    9.1692   14.1071 H           1 GOX       0.0603
     23 H10        -2.4554    9.7225   15.3194 H           1 GOX       0.0581
     24 H11        -1.7035   10.5563   13.9399 H           1 GOX       0.0581
     25 H12        -0.1391   11.3393   15.2770 H           1 GOX       0.2095
@<TRIPOS>BOND
     1     1     2   2
     2     1     3   1
     3     1     4   1
     4     2     5   1
     5     3     6   1
     6     3     7   1
     7     4    11   1
     8     7     8   1
     9     7     9   1
    10     9    10   1
    11     9    11   1
    12    11    12   1
    13    12    13   1
    14     3    14   1
    15     4    15   1
    16     5    16   1
    17     6    17   1
    18     7    18   1
    19     8    19   1
    20     9    20   1
    21    10    21   1
    22    11    22   1
    23    12    23   1
    24    12    24   1
    25    13    25   1
@<TRIPOS>SUBSTRUCTURE
     1  GOX      1

