@<TRIPOS>MOLECULE
2j78_ligand_037
    25    25
SMALL
GAST_HUCK
****
This file was generated by PARSER (from files_GN.cpp)

@<TRIPOS>ATOM
      1 C1         -1.8115   10.1519    9.6701 C.2         1 GOX       0.1322
      2 N1         -2.6799    9.5454   10.5009 N.2         1 GOX      -0.2068
      3 C2         -2.1763   10.5352    8.2817 C.3         1 GOX       0.1503
      4 N5         -0.5629   10.3268   10.1662 N.pl3       1 GOX      -0.2990
      5 O7         -3.9137    9.2117   10.2447 O.3         1 GOX      -0.3046
      6 O2         -2.3461    9.3273    7.5406 O.3         1 GOX      -0.3713
      7 C3         -1.1418   11.4874    7.6255 C.3         1 GOX       0.1233
      8 O3         -1.3880   12.8311    8.0500 O.3         1 GOX      -0.3841
      9 C4          0.3291   11.0790    7.9417 C.3         1 GOX       0.1104
     10 O4          0.6790    9.9005    7.2114 O.3         1 GOX      -0.3866
     11 C5          0.5712   10.8728    9.4757 C.3         1 GOX       0.0898
     12 C6          1.0430   12.1634   10.2164 C.3         1 GOX       0.0694
     13 O6          2.4540   12.1900   10.4045 O.3         1 GOX      -0.3927
     14 H1         -3.1489   11.0412    8.2870 H           1 GOX       0.0843
     15 H2         -0.4218   10.0449   11.0822 H           1 GOX       0.1812
     16 H3         -3.9725    9.1013    9.2703 H           1 GOX       0.2523
     17 H4         -2.5675    9.6088    6.6270 H           1 GOX       0.2137
     18 H5         -1.2789   11.4882    6.5395 H           1 GOX       0.0673
     19 H6         -1.1985   12.8569    9.0166 H           1 GOX       0.2103
     20 H7          1.0005   11.8562    7.5722 H           1 GOX       0.0646
     21 H8         -0.1473    9.3844    7.0512 H           1 GOX       0.2100
     22 H9          1.3534   10.1244    9.5840 H           1 GOX       0.0603
     23 H10         0.5879   12.2575   11.2083 H           1 GOX       0.0581
     24 H11         0.7847   13.0659    9.6611 H           1 GOX       0.0581
     25 H12         2.6507   11.4366   10.9966 H           1 GOX       0.2095
@<TRIPOS>BOND
     1     1     2   2
     2     1     3   1
     3     1     4   1
     4     2     5   1
     5     3     6   1
     6     3     7   1
     7     4    11   1
     8     7     8   1
     9     7     9   1
    10     9    10   1
    11     9    11   1
    12    11    12   1
    13    12    13   1
    14     3    14   1
    15     4    15   1
    16     5    16   1
    17     6    17   1
    18     7    18   1
    19     8    19   1
    20     9    20   1
    21    10    21   1
    22    11    22   1
    23    12    23   1
    24    12    24   1
    25    13    25   1
@<TRIPOS>SUBSTRUCTURE
     1  GOX      1

