@<TRIPOS>MOLECULE
2j78_ligand_011
    25    25
SMALL
GAST_HUCK
****
This file was generated by PARSER (from files_GN.cpp)

@<TRIPOS>ATOM
      1 C1         -2.2154    7.3151   15.3039 C.2         1 GOX       0.1322
      2 N1         -2.3909    6.0103   15.6018 N.2         1 GOX      -0.2068
      3 C2         -2.5226    8.4002   16.2761 C.3         1 GOX       0.1503
      4 N5         -1.6907    7.5693   14.0826 N.pl3       1 GOX      -0.2990
      5 O7         -2.7983    5.5615   16.7613 O.3         1 GOX      -0.3046
      6 O2         -3.8419    8.2354   16.8002 O.3         1 GOX      -0.3713
      7 C3         -2.4362    9.8252   15.6647 C.3         1 GOX       0.1233
      8 O3         -2.3029   10.7852   16.7069 O.3         1 GOX      -0.3841
      9 C4         -1.2497    9.9624   14.6784 C.3         1 GOX       0.1104
     10 O4         -1.2842   11.2665   14.0871 O.3         1 GOX      -0.3866
     11 C5         -1.3284    8.8587   13.5740 C.3         1 GOX       0.0898
     12 C6          0.0054    8.7266   12.7881 C.3         1 GOX       0.0694
     13 O6          0.3060    9.8910   12.0167 O.3         1 GOX      -0.3927
     14 H1         -1.8092    8.3171   17.0969 H           1 GOX       0.0843
     15 H2         -1.5704    6.8119   13.4891 H           1 GOX       0.1812
     16 H3         -3.7097    5.2330   16.5997 H           1 GOX       0.2523
     17 H4         -3.7787    7.5114   17.4546 H           1 GOX       0.2137
     18 H5         -3.3636   10.0476   15.1295 H           1 GOX       0.0673
     19 H6         -2.9680   10.5354   17.3828 H           1 GOX       0.2103
     20 H7         -0.3160    9.8532   15.2416 H           1 GOX       0.0646
     21 H8         -0.4484   11.6997   14.3662 H           1 GOX       0.2100
     22 H9         -2.1071    9.1353   12.8591 H           1 GOX       0.0603
     23 H10        -0.0715    7.8899   12.0877 H           1 GOX       0.0581
     24 H11         0.8392    8.5256   13.4681 H           1 GOX       0.0581
     25 H12         0.9281   10.4290   12.5591 H           1 GOX       0.2095
@<TRIPOS>BOND
     1     1     2   2
     2     1     3   1
     3     1     4   1
     4     2     5   1
     5     3     6   1
     6     3     7   1
     7     4    11   1
     8     7     8   1
     9     7     9   1
    10     9    10   1
    11     9    11   1
    12    11    12   1
    13    12    13   1
    14     3    14   1
    15     4    15   1
    16     5    16   1
    17     6    17   1
    18     7    18   1
    19     8    19   1
    20     9    20   1
    21    10    21   1
    22    11    22   1
    23    12    23   1
    24    12    24   1
    25    13    25   1
@<TRIPOS>SUBSTRUCTURE
     1  GOX      1

