@<TRIPOS>MOLECULE
2j78_ligand_025
    25    25
SMALL
GAST_HUCK
****
This file was generated by PARSER (from files_GN.cpp)

@<TRIPOS>ATOM
      1 C1         -0.9352    7.6086   17.4705 C.2         1 GOX       0.1322
      2 N1         -0.0029    7.9023   18.4064 N.2         1 GOX      -0.2068
      3 C2         -1.0791    8.5113   16.2912 C.3         1 GOX       0.1503
      4 N5         -1.7269    6.5222   17.6741 N.pl3       1 GOX      -0.2990
      5 O7          0.1411    7.2078   19.4949 O.3         1 GOX      -0.3046
      6 O2         -1.4601    9.7971   16.7745 O.3         1 GOX      -0.3713
      7 C3         -2.0858    7.9779   15.2228 C.3         1 GOX       0.1233
      8 O3         -1.4114    7.1696   14.2621 O.3         1 GOX      -0.3841
      9 C4         -3.2664    7.1963   15.8491 C.3         1 GOX       0.1104
     10 O4         -4.0888    8.1227   16.5565 O.3         1 GOX      -0.3866
     11 C5         -2.7923    6.0777   16.8280 C.3         1 GOX       0.0898
     12 C6         -2.3573    4.7342   16.1749 C.3         1 GOX       0.0694
     13 O6         -3.3541    4.1943   15.3133 O.3         1 GOX      -0.3927
     14 H1         -0.0961    8.6326   15.8257 H           1 GOX       0.0843
     15 H2         -1.5365    5.9850   18.4537 H           1 GOX       0.1812
     16 H3          0.4028    7.8520   20.1991 H           1 GOX       0.2523
     17 H4         -1.9496   10.2345   16.0339 H           1 GOX       0.2137
     18 H5         -2.4884    8.8236   14.6530 H           1 GOX       0.0673
     19 H6         -0.8603    6.5547   14.7866 H           1 GOX       0.2103
     20 H7         -3.8902    6.7806   15.0577 H           1 GOX       0.0646
     21 H8         -3.5542    8.4058   17.3463 H           1 GOX       0.2100
     22 H9         -3.6279    5.8454   17.4818 H           1 GOX       0.0603
     23 H10        -2.1571    3.9896   16.9547 H           1 GOX       0.0581
     24 H11        -1.4315    4.8425   15.5983 H           1 GOX       0.0581
     25 H12        -3.3697    4.7850   14.5285 H           1 GOX       0.2095
@<TRIPOS>BOND
     1     1     2   2
     2     1     3   1
     3     1     4   1
     4     2     5   1
     5     3     6   1
     6     3     7   1
     7     4    11   1
     8     7     8   1
     9     7     9   1
    10     9    10   1
    11     9    11   1
    12    11    12   1
    13    12    13   1
    14     3    14   1
    15     4    15   1
    16     5    16   1
    17     6    17   1
    18     7    18   1
    19     8    19   1
    20     9    20   1
    21    10    21   1
    22    11    22   1
    23    12    23   1
    24    12    24   1
    25    13    25   1
@<TRIPOS>SUBSTRUCTURE
     1  GOX      1

