@<TRIPOS>MOLECULE
2j78_ligand_039
    25    25
SMALL
GAST_HUCK
****
This file was generated by PARSER (from files_GN.cpp)

@<TRIPOS>ATOM
      1 C1         -0.5825    4.1591    9.2602 C.2         1 GOX       0.1322
      2 N1         -1.2276    3.3136   10.0900 N.2         1 GOX      -0.2068
      3 C2         -0.5504    5.6090    9.5714 C.3         1 GOX       0.1503
      4 N5          0.1388    3.6837    8.2178 N.pl3       1 GOX      -0.2990
      5 O7         -1.3036    2.0178    9.9431 O.3         1 GOX      -0.3046
      6 O2         -1.4473    6.3220    8.7185 O.3         1 GOX      -0.3713
      7 C3          0.9019    6.1454    9.4299 C.3         1 GOX       0.1233
      8 O3          1.6652    5.7254   10.5672 O.3         1 GOX      -0.3841
      9 C4          1.6097    5.6929    8.1046 C.3         1 GOX       0.1104
     10 O4          1.7491    6.8114    7.2252 O.3         1 GOX      -0.3866
     11 C5          0.8925    4.5259    7.3375 C.3         1 GOX       0.0898
     12 C6          1.8573    3.6410    6.5010 C.3         1 GOX       0.0694
     13 O6          2.8994    4.3972    5.8948 O.3         1 GOX      -0.3927
     14 H1         -0.8975    5.7809   10.5947 H           1 GOX       0.0843
     15 H2          0.1754    2.7227    8.0842 H           1 GOX       0.1812
     16 H3         -1.7943    1.8760    9.1041 H           1 GOX       0.2523
     17 H4         -0.9763    6.5070    7.8799 H           1 GOX       0.2137
     18 H5          0.8709    7.2392    9.4819 H           1 GOX       0.0673
     19 H6          1.7567    4.7511   10.4791 H           1 GOX       0.2103
     20 H7          2.6258    5.3771    8.3565 H           1 GOX       0.0646
     21 H8          0.8316    7.0948    7.0163 H           1 GOX       0.2100
     22 H9          0.1694    4.9629    6.6411 H           1 GOX       0.0603
     23 H10         1.3013    3.1402    5.7048 H           1 GOX       0.0581
     24 H11         2.3122    2.8760    7.1336 H           1 GOX       0.0581
     25 H12         3.4687    4.6850    6.6375 H           1 GOX       0.2095
@<TRIPOS>BOND
     1     1     2   2
     2     1     3   1
     3     1     4   1
     4     2     5   1
     5     3     6   1
     6     3     7   1
     7     4    11   1
     8     7     8   1
     9     7     9   1
    10     9    10   1
    11     9    11   1
    12    11    12   1
    13    12    13   1
    14     3    14   1
    15     4    15   1
    16     5    16   1
    17     6    17   1
    18     7    18   1
    19     8    19   1
    20     9    20   1
    21    10    21   1
    22    11    22   1
    23    12    23   1
    24    12    24   1
    25    13    25   1
@<TRIPOS>SUBSTRUCTURE
     1  GOX      1

