@<TRIPOS>MOLECULE
2j78_ligand_033
    25    25
SMALL
GAST_HUCK
****
This file was generated by PARSER (from files_GN.cpp)

@<TRIPOS>ATOM
      1 C1         -0.8175   11.8507    8.0919 C.2         1 GOX       0.1322
      2 N1         -0.8618   13.1897    8.2084 N.2         1 GOX      -0.2068
      3 C2          0.3919   11.0969    7.6773 C.3         1 GOX       0.1503
      4 N5         -1.9252   11.1668    8.4508 N.pl3       1 GOX      -0.2990
      5 O7          0.1449   13.9740    7.9480 O.3         1 GOX      -0.3046
      6 O2          0.2572   10.7074    6.3078 O.3         1 GOX      -0.3713
      7 C3          0.6372    9.8568    8.5904 C.3         1 GOX       0.1233
      8 O3          1.4525   10.2855    9.6903 O.3         1 GOX      -0.3841
      9 C4         -0.6718    9.1683    9.1172 C.3         1 GOX       0.1104
     10 O4         -0.6145    7.7500    8.9520 O.3         1 GOX      -0.3866
     11 C5         -1.9823    9.7361    8.4739 C.3         1 GOX       0.0898
     12 C6         -3.3014    9.2637    9.1644 C.3         1 GOX       0.0694
     13 O6         -3.1962    9.1151   10.5797 O.3         1 GOX      -0.3927
     14 H1          1.2625   11.7435    7.7079 H           1 GOX       0.0843
     15 H2         -2.7049   11.6752    8.7279 H           1 GOX       0.1812
     16 H3          0.4103   14.3417    8.8196 H           1 GOX       0.2523
     17 H4         -0.3743    9.9678    6.2610 H           1 GOX       0.2137
     18 H5          1.2325    9.1395    8.0288 H           1 GOX       0.0673
     19 H6          1.7354    9.4629   10.1382 H           1 GOX       0.2103
     20 H7         -0.7051    9.3412   10.1918 H           1 GOX       0.0646
     21 H8         -0.5494    7.6184    7.9860 H           1 GOX       0.2100
     22 H9         -2.0250    9.4038    7.4293 H           1 GOX       0.0603
     23 H10        -3.5950    8.2962    8.7532 H           1 GOX       0.0581
     24 H11        -4.1113    9.9634    8.9507 H           1 GOX       0.0581
     25 H12        -2.6042    9.8350   10.8766 H           1 GOX       0.2095
@<TRIPOS>BOND
     1     1     2   2
     2     1     3   1
     3     1     4   1
     4     2     5   1
     5     3     6   1
     6     3     7   1
     7     4    11   1
     8     7     8   1
     9     7     9   1
    10     9    10   1
    11     9    11   1
    12    11    12   1
    13    12    13   1
    14     3    14   1
    15     4    15   1
    16     5    16   1
    17     6    17   1
    18     7    18   1
    19     8    19   1
    20     9    20   1
    21    10    21   1
    22    11    22   1
    23    12    23   1
    24    12    24   1
    25    13    25   1
@<TRIPOS>SUBSTRUCTURE
     1  GOX      1

