@<TRIPOS>MOLECULE
2j78_ligand_047
    25    25
SMALL
GAST_HUCK
****
This file was generated by PARSER (from files_GN.cpp)

@<TRIPOS>ATOM
      1 C1         -1.4589    6.6438   17.7112 C.2         1 GOX       0.1322
      2 N1         -2.3482    5.7698   18.2278 N.2         1 GOX      -0.2068
      3 C2          0.0055    6.4129   17.8319 C.3         1 GOX       0.1503
      4 N5         -1.8915    7.7099   16.9995 N.pl3       1 GOX      -0.2990
      5 O7         -3.6469    5.9102   18.1196 O.3         1 GOX      -0.3046
      6 O2          0.5377    7.3683   18.7540 O.3         1 GOX      -0.3713
      7 C3          0.6842    6.5518   16.4316 C.3         1 GOX       0.1233
      8 O3          0.6790    5.2623   15.8130 O.3         1 GOX      -0.3841
      9 C4          0.0069    7.6037   15.4770 C.3         1 GOX       0.1104
     10 O4          1.0109    8.3479   14.7805 O.3         1 GOX      -0.3866
     11 C5         -1.0074    8.5344   16.2284 C.3         1 GOX       0.0898
     12 C6         -1.8619    9.4176   15.2776 C.3         1 GOX       0.0694
     13 O6         -2.4628   10.5069   15.9795 O.3         1 GOX      -0.3927
     14 H1          0.2181    5.4233   18.2495 H           1 GOX       0.0843
     15 H2         -2.8467    7.7953   16.8539 H           1 GOX       0.1812
     16 H3         -3.9863    5.0119   17.8467 H           1 GOX       0.2523
     17 H4          0.0429    7.2283   19.5781 H           1 GOX       0.2137
     18 H5          1.7366    6.8059   16.5974 H           1 GOX       0.0673
     19 H6          1.2421    5.3513   15.0223 H           1 GOX       0.2103
     20 H7         -0.5619    7.0695   14.7042 H           1 GOX       0.0646
     21 H8          1.8359    8.2165   15.3017 H           1 GOX       0.2100
     22 H9         -0.4482    9.1720   16.9191 H           1 GOX       0.0603
     23 H10        -2.6527    8.8068   14.8188 H           1 GOX       0.0581
     24 H11        -1.2305    9.8270   14.4849 H           1 GOX       0.0581
     25 H12        -2.7397   10.1374   16.8511 H           1 GOX       0.2095
@<TRIPOS>BOND
     1     1     2   2
     2     1     3   1
     3     1     4   1
     4     2     5   1
     5     3     6   1
     6     3     7   1
     7     4    11   1
     8     7     8   1
     9     7     9   1
    10     9    10   1
    11     9    11   1
    12    11    12   1
    13    12    13   1
    14     3    14   1
    15     4    15   1
    16     5    16   1
    17     6    17   1
    18     7    18   1
    19     8    19   1
    20     9    20   1
    21    10    21   1
    22    11    22   1
    23    12    23   1
    24    12    24   1
    25    13    25   1
@<TRIPOS>SUBSTRUCTURE
     1  GOX      1

