@<TRIPOS>MOLECULE
2j78_ligand_040
    25    25
SMALL
GAST_HUCK
****
This file was generated by PARSER (from files_GN.cpp)

@<TRIPOS>ATOM
      1 C1         -2.2192    7.8900   15.7238 C.2         1 GOX       0.1322
      2 N1         -3.2682    7.3846   16.4044 N.2         1 GOX      -0.2068
      3 C2         -1.2683    6.9730   15.0587 C.3         1 GOX       0.1503
      4 N5         -2.0623    9.2291   15.5938 N.pl3       1 GOX      -0.2990
      5 O7         -4.1727    8.1313   16.9800 O.3         1 GOX      -0.3046
      6 O2         -0.0874    6.8443   15.8635 O.3         1 GOX      -0.3713
      7 C3         -0.9191    7.4806   13.6270 C.3         1 GOX       0.1233
      8 O3         -1.9231    7.0166   12.7294 O.3         1 GOX      -0.3841
      9 C4         -0.7648    9.0427   13.5038 C.3         1 GOX       0.1104
     10 O4          0.5411    9.3274   12.9857 O.3         1 GOX      -0.3866
     11 C5         -1.0001    9.8245   14.8363 C.3         1 GOX       0.0898
     12 C6         -1.2895   11.3484   14.6678 C.3         1 GOX       0.0694
     13 O6         -1.0023   11.8486   13.3585 O.3         1 GOX      -0.3927
     14 H1         -1.7050    5.9695   14.9949 H           1 GOX       0.0843
     15 H2         -2.7238    9.8108   16.0128 H           1 GOX       0.1812
     16 H3         -3.8048    8.3426   17.8617 H           1 GOX       0.2523
     17 H4          0.4368    7.6539   15.7051 H           1 GOX       0.2137
     18 H5          0.0107    6.9856   13.3217 H           1 GOX       0.0673
     19 H6         -1.5518    7.1582   11.8307 H           1 GOX       0.2103
     20 H7         -1.4906    9.4032   12.7714 H           1 GOX       0.0646
     21 H8          0.7725   10.2486   13.2433 H           1 GOX       0.2100
     22 H9         -0.0967    9.7131   15.4318 H           1 GOX       0.0603
     23 H10        -0.6875   11.9184   15.3926 H           1 GOX       0.0581
     24 H11        -2.3412   11.5849   14.8594 H           1 GOX       0.0581
     25 H12        -1.3669   12.7518   13.3356 H           1 GOX       0.2095
@<TRIPOS>BOND
     1     1     2   2
     2     1     3   1
     3     1     4   1
     4     2     5   1
     5     3     6   1
     6     3     7   1
     7     4    11   1
     8     7     8   1
     9     7     9   1
    10     9    10   1
    11     9    11   1
    12    11    12   1
    13    12    13   1
    14     3    14   1
    15     4    15   1
    16     5    16   1
    17     6    17   1
    18     7    18   1
    19     8    19   1
    20     9    20   1
    21    10    21   1
    22    11    22   1
    23    12    23   1
    24    12    24   1
    25    13    25   1
@<TRIPOS>SUBSTRUCTURE
     1  GOX      1

