@<TRIPOS>MOLECULE
2j78_ligand_046
    25    25
SMALL
GAST_HUCK
****
This file was generated by PARSER (from files_GN.cpp)

@<TRIPOS>ATOM
      1 C1         -2.4639    6.4365   16.8231 C.2         1 GOX       0.1322
      2 N1         -3.6492    6.8020   17.3599 N.2         1 GOX      -0.2068
      3 C2         -1.5932    7.3343   16.0213 C.3         1 GOX       0.1503
      4 N5         -2.0451    5.1788   17.1164 N.pl3       1 GOX      -0.2990
      5 O7         -4.2430    7.9530   17.2122 O.3         1 GOX      -0.3046
      6 O2         -1.8073    7.0477   14.6473 O.3         1 GOX      -0.3713
      7 C3         -0.0794    7.1544   16.3956 C.3         1 GOX       0.1233
      8 O3          0.2874    8.1029   17.4116 O.3         1 GOX      -0.3841
      9 C4          0.3519    5.7233   16.8917 C.3         1 GOX       0.1104
     10 O4          1.5626    5.3182   16.2351 O.3         1 GOX      -0.3866
     11 C5         -0.7682    4.6496   16.7010 C.3         1 GOX       0.0898
     12 C6         -0.4570    3.3208   17.4400 C.3         1 GOX       0.0694
     13 O6         -0.5577    3.4489   18.8640 O.3         1 GOX      -0.3927
     14 H1         -1.8757    8.3805   16.1700 H           1 GOX       0.0843
     15 H2         -2.6113    4.6349   17.6823 H           1 GOX       0.1812
     16 H3         -3.6971    8.5771   17.7423 H           1 GOX       0.2523
     17 H4         -1.3184    6.2247   14.4488 H           1 GOX       0.2137
     18 H5          0.5287    7.4257   15.5333 H           1 GOX       0.0673
     19 H6         -0.5681    8.3474   17.8712 H           1 GOX       0.2103
     20 H7          0.5709    5.7791   17.9652 H           1 GOX       0.0646
     21 H8          1.3516    5.3021   15.2674 H           1 GOX       0.2100
     22 H9         -0.8334    4.4292   15.6226 H           1 GOX       0.0603
     23 H10         0.5562    2.9749   17.1996 H           1 GOX       0.0581
     24 H11        -1.1679    2.5530   17.1243 H           1 GOX       0.0581
     25 H12         0.3103    3.8369   19.1469 H           1 GOX       0.2095
@<TRIPOS>BOND
     1     1     2   2
     2     1     3   1
     3     1     4   1
     4     2     5   1
     5     3     6   1
     6     3     7   1
     7     4    11   1
     8     7     8   1
     9     7     9   1
    10     9    10   1
    11     9    11   1
    12    11    12   1
    13    12    13   1
    14     3    14   1
    15     4    15   1
    16     5    16   1
    17     6    17   1
    18     7    18   1
    19     8    19   1
    20     9    20   1
    21    10    21   1
    22    11    22   1
    23    12    23   1
    24    12    24   1
    25    13    25   1
@<TRIPOS>SUBSTRUCTURE
     1  GOX      1

