@<TRIPOS>MOLECULE
2j78_ligand_027
    25    25
SMALL
GAST_HUCK
****
This file was generated by PARSER (from files_GN.cpp)

@<TRIPOS>ATOM
      1 C1         -0.6551    6.7211   14.7123 C.2         1 GOX       0.1322
      2 N1          0.4856    6.3849   14.0714 N.2         1 GOX      -0.2068
      3 C2         -1.3296    5.8300   15.6993 C.3         1 GOX       0.1503
      4 N5         -1.1065    7.9737   14.4414 N.pl3       1 GOX      -0.2990
      5 O7          1.1409    5.2569   14.2281 O.3         1 GOX      -0.3046
      6 O2         -1.5255    4.5313   15.1487 O.3         1 GOX      -0.3713
      7 C3         -2.7204    6.3659   16.1336 C.3         1 GOX       0.1233
      8 O3         -3.1421    5.6899   17.3171 O.3         1 GOX      -0.3841
      9 C4         -2.6689    7.8950   16.3861 C.3         1 GOX       0.1104
     10 O4         -3.9496    8.3588   16.8147 O.3         1 GOX      -0.3866
     11 C5         -2.1958    8.6385   15.0993 C.3         1 GOX       0.0898
     12 C6         -1.7741   10.0958   15.4253 C.3         1 GOX       0.0694
     13 O6         -1.3677   10.7896   14.2495 O.3         1 GOX      -0.3927
     14 H1         -0.6715    5.7472   16.5641 H           1 GOX       0.0843
     15 H2         -0.6406    8.4726   13.7566 H           1 GOX       0.1812
     16 H3          1.6911    5.3919   15.0343 H           1 GOX       0.2523
     17 H4         -0.6236    4.1407   15.0598 H           1 GOX       0.2137
     18 H5         -3.4451    6.1723   15.3373 H           1 GOX       0.0673
     19 H6         -3.9659    5.2076   17.0609 H           1 GOX       0.2103
     20 H7         -1.9539    8.0785   17.2014 H           1 GOX       0.0646
     21 H8         -3.8640    8.5252   17.7764 H           1 GOX       0.2100
     22 H9         -3.0339    8.6679   14.3946 H           1 GOX       0.0603
     23 H10        -0.9428   10.0888   16.1387 H           1 GOX       0.0581
     24 H11        -2.6133   10.6454   15.8701 H           1 GOX       0.0581
     25 H12        -0.4655   11.1546   14.4435 H           1 GOX       0.2095
@<TRIPOS>BOND
     1     1     2   2
     2     1     3   1
     3     1     4   1
     4     2     5   1
     5     3     6   1
     6     3     7   1
     7     4    11   1
     8     7     8   1
     9     7     9   1
    10     9    10   1
    11     9    11   1
    12    11    12   1
    13    12    13   1
    14     3    14   1
    15     4    15   1
    16     5    16   1
    17     6    17   1
    18     7    18   1
    19     8    19   1
    20     9    20   1
    21    10    21   1
    22    11    22   1
    23    12    23   1
    24    12    24   1
    25    13    25   1
@<TRIPOS>SUBSTRUCTURE
     1  GOX      1

