@<TRIPOS>MOLECULE
2j78_ligand_044
    25    25
SMALL
GAST_HUCK
****
This file was generated by PARSER (from files_GN.cpp)

@<TRIPOS>ATOM
      1 C1         -2.4245    5.8957   14.5300 C.2         1 GOX       0.1322
      2 N1         -2.5688    4.6548   14.0234 N.2         1 GOX      -0.2068
      3 C2         -3.5183    6.5526   15.2991 C.3         1 GOX       0.1503
      4 N5         -1.2103    6.4735   14.3621 N.pl3       1 GOX      -0.2990
      5 O7         -3.6447    3.9265   14.1265 O.3         1 GOX      -0.3046
      6 O2         -4.7280    6.5062   14.5425 O.3         1 GOX      -0.3713
      7 C3         -3.2082    8.0338   15.6670 C.3         1 GOX       0.1233
      8 O3         -4.0869    8.4588   16.7082 O.3         1 GOX      -0.3841
      9 C4         -1.7271    8.2351   16.0764 C.3         1 GOX       0.1104
     10 O4         -1.4839    9.6186   16.3446 O.3         1 GOX      -0.3866
     11 C5         -0.7774    7.7159   14.9462 C.3         1 GOX       0.0898
     12 C6          0.6923    7.5821   15.4447 C.3         1 GOX       0.0694
     13 O6          1.6016    8.3249   14.6304 O.3         1 GOX      -0.3927
     14 H1         -3.6634    5.9820   16.2240 H           1 GOX       0.0843
     15 H2         -0.5722    6.0052   13.7989 H           1 GOX       0.1812
     16 H3         -3.4789    3.1448   13.5552 H           1 GOX       0.2523
     17 H4         -4.4556    6.6509   13.6066 H           1 GOX       0.2137
     18 H5         -3.4134    8.6744   14.7997 H           1 GOX       0.0673
     19 H6         -3.5352    8.4940   17.5293 H           1 GOX       0.2103
     20 H7         -1.5403    7.6792   16.9936 H           1 GOX       0.0646
     21 H8         -1.7118   10.0916   15.5096 H           1 GOX       0.2100
     22 H9         -0.7894    8.4553   14.1334 H           1 GOX       0.0603
     23 H10         1.0064    6.5315   15.4464 H           1 GOX       0.0581
     24 H11         0.8023    7.9566   16.4714 H           1 GOX       0.0581
     25 H12         1.6524    7.8204   13.7882 H           1 GOX       0.2095
@<TRIPOS>BOND
     1     1     2   2
     2     1     3   1
     3     1     4   1
     4     2     5   1
     5     3     6   1
     6     3     7   1
     7     4    11   1
     8     7     8   1
     9     7     9   1
    10     9    10   1
    11     9    11   1
    12    11    12   1
    13    12    13   1
    14     3    14   1
    15     4    15   1
    16     5    16   1
    17     6    17   1
    18     7    18   1
    19     8    19   1
    20     9    20   1
    21    10    21   1
    22    11    22   1
    23    12    23   1
    24    12    24   1
    25    13    25   1
@<TRIPOS>SUBSTRUCTURE
     1  GOX      1

