@<TRIPOS>MOLECULE
2j78_ligand_052
    25    25
SMALL
GAST_HUCK
****
This file was generated by PARSER (from files_GN.cpp)

@<TRIPOS>ATOM
      1 C1         -2.9123    4.4926   14.9417 C.2         1 GOX       0.1322
      2 N1         -3.5722    3.3266   15.0977 N.2         1 GOX      -0.2068
      3 C2         -2.6445    5.0680   13.5986 C.3         1 GOX       0.1503
      4 N5         -2.5215    5.1031   16.0832 N.pl3       1 GOX      -0.2990
      5 O7         -4.0210    2.5999   14.1146 O.3         1 GOX      -0.3046
      6 O2         -1.5612    4.3581   12.9977 O.3         1 GOX      -0.3713
      7 C3         -2.3685    6.5944   13.6413 C.3         1 GOX       0.1233
      8 O3         -3.5989    7.3110   13.7466 O.3         1 GOX      -0.3841
      9 C4         -1.4116    6.9808   14.8003 C.3         1 GOX       0.1104
     10 O4         -0.0958    6.5423   14.4523 O.3         1 GOX      -0.3866
     11 C5         -1.8406    6.3668   16.1790 C.3         1 GOX       0.0898
     12 C6         -2.6701    7.3308   17.0769 C.3         1 GOX       0.0694
     13 O6         -4.0416    7.4514   16.7054 O.3         1 GOX      -0.3927
     14 H1         -3.5218    4.9154   12.9689 H           1 GOX       0.0843
     15 H2         -2.7489    4.6532   16.9149 H           1 GOX       0.1812
     16 H3         -4.8509    2.2050   14.4566 H           1 GOX       0.2523
     17 H4         -0.7968    4.4886   13.5981 H           1 GOX       0.2137
     18 H5         -1.9266    6.9003   12.6883 H           1 GOX       0.0673
     19 H6         -4.0396    6.9704   14.5514 H           1 GOX       0.2103
     20 H7         -1.3617    8.0723   14.8563 H           1 GOX       0.0646
     21 H8          0.4917    6.9161   15.1421 H           1 GOX       0.2100
     22 H9         -0.9214    6.1680   16.7369 H           1 GOX       0.0603
     23 H10        -2.2321    8.3296   17.0622 H           1 GOX       0.0581
     24 H11        -2.6373    6.9768   18.1094 H           1 GOX       0.0581
     25 H12        -4.4085    6.5407   16.7359 H           1 GOX       0.2095
@<TRIPOS>BOND
     1     1     2   2
     2     1     3   1
     3     1     4   1
     4     2     5   1
     5     3     6   1
     6     3     7   1
     7     4    11   1
     8     7     8   1
     9     7     9   1
    10     9    10   1
    11     9    11   1
    12    11    12   1
    13    12    13   1
    14     3    14   1
    15     4    15   1
    16     5    16   1
    17     6    17   1
    18     7    18   1
    19     8    19   1
    20     9    20   1
    21    10    21   1
    22    11    22   1
    23    12    23   1
    24    12    24   1
    25    13    25   1
@<TRIPOS>SUBSTRUCTURE
     1  GOX      1

