@<TRIPOS>MOLECULE
2j78_ligand_043
    25    25
SMALL
GAST_HUCK
****
This file was generated by PARSER (from files_GN.cpp)

@<TRIPOS>ATOM
      1 C1         -1.1863    6.7503   14.1460 C.2         1 GOX       0.1322
      2 N1         -0.3501    6.3157   13.1819 N.2         1 GOX      -0.2068
      3 C2         -2.5658    7.1569   13.7928 C.3         1 GOX       0.1503
      4 N5         -0.8155    6.7348   15.4494 N.pl3       1 GOX      -0.2990
      5 O7          0.8649    5.8995   13.4083 O.3         1 GOX      -0.3046
      6 O2         -2.6683    8.5762   13.8594 O.3         1 GOX      -0.3713
      7 C3         -3.5527    6.4991   14.7971 C.3         1 GOX       0.1233
      8 O3         -3.5633    5.0862   14.5669 O.3         1 GOX      -0.3841
      9 C4         -3.1811    6.7900   16.2932 C.3         1 GOX       0.1104
     10 O4         -4.0302    7.8325   16.7926 O.3         1 GOX      -0.3866
     11 C5         -1.6705    7.1756   16.5149 C.3         1 GOX       0.0898
     12 C6         -1.1098    6.6585   17.8653 C.3         1 GOX       0.0694
     13 O6          0.0834    7.3469   18.2335 O.3         1 GOX      -0.3927
     14 H1         -2.8172    6.8499   12.7727 H           1 GOX       0.0843
     15 H2          0.0675    6.3984   15.6710 H           1 GOX       0.1812
     16 H3          1.2122    5.6624   12.5233 H           1 GOX       0.2523
     17 H4         -2.0262    8.9129   13.1984 H           1 GOX       0.2137
     18 H5         -4.5663    6.8553   14.5889 H           1 GOX       0.0673
     19 H6         -3.8894    4.9718   13.6482 H           1 GOX       0.2103
     20 H7         -3.4228    5.8994   16.8817 H           1 GOX       0.0646
     21 H8         -3.5995    8.1730   17.6035 H           1 GOX       0.2100
     22 H9         -1.5996    8.2683   16.5282 H           1 GOX       0.0603
     23 H10        -0.8924    5.5900   17.7950 H           1 GOX       0.0581
     24 H11        -1.8453    6.8080   18.6546 H           1 GOX       0.0581
     25 H12         0.4215    6.8677   19.0201 H           1 GOX       0.2095
@<TRIPOS>BOND
     1     1     2   2
     2     1     3   1
     3     1     4   1
     4     2     5   1
     5     3     6   1
     6     3     7   1
     7     4    11   1
     8     7     8   1
     9     7     9   1
    10     9    10   1
    11     9    11   1
    12    11    12   1
    13    12    13   1
    14     3    14   1
    15     4    15   1
    16     5    16   1
    17     6    17   1
    18     7    18   1
    19     8    19   1
    20     9    20   1
    21    10    21   1
    22    11    22   1
    23    12    23   1
    24    12    24   1
    25    13    25   1
@<TRIPOS>SUBSTRUCTURE
     1  GOX      1

