@<TRIPOS>MOLECULE
2j78_ligand_048
    25    25
SMALL
GAST_HUCK
****
This file was generated by PARSER (from files_GN.cpp)

@<TRIPOS>ATOM
      1 C1          0.4412   11.2662   11.4485 C.2         1 GOX       0.1322
      2 N1          0.8104   12.5613   11.4354 N.2         1 GOX      -0.2068
      3 C2          1.0206   10.2497   10.5248 C.3         1 GOX       0.1503
      4 N5         -0.4409   10.9360   12.4213 N.pl3       1 GOX      -0.2990
      5 O7          1.6873   13.0849   10.6327 O.3         1 GOX      -0.3046
      6 O2          0.9562   10.6857    9.1651 O.3         1 GOX      -0.3713
      7 C3          0.2962    8.8733   10.6151 C.3         1 GOX       0.1233
      8 O3          1.0848    7.8646    9.9803 O.3         1 GOX      -0.3841
      9 C4          0.0144    8.5034   12.0939 C.3         1 GOX       0.1104
     10 O4         -0.6348    7.2350   12.1860 O.3         1 GOX      -0.3866
     11 C5         -0.8513    9.6122   12.7851 C.3         1 GOX       0.0898
     12 C6         -0.8730    9.4363   14.3341 C.3         1 GOX       0.0694
     13 O6         -1.0505   10.6635   15.0443 O.3         1 GOX      -0.3927
     14 H1          2.0727   10.1118   10.7858 H           1 GOX       0.0843
     15 H2         -0.8474   11.6747   12.9052 H           1 GOX       0.1812
     16 H3          1.2214   13.8514   10.2418 H           1 GOX       0.2523
     17 H4          1.6935   11.3172    9.0521 H           1 GOX       0.2137
     18 H5         -0.6584    8.9242   10.0785 H           1 GOX       0.0673
     19 H6          1.9221    7.8298   10.4894 H           1 GOX       0.2103
     20 H7          0.9761    8.4261   12.6113 H           1 GOX       0.0646
     21 H8          0.0264    6.5871   11.8623 H           1 GOX       0.2100
     22 H9         -1.8785    9.5247   12.4302 H           1 GOX       0.0603
     23 H10         0.0476    8.9759   14.6925 H           1 GOX       0.0581
     24 H11        -1.6999    8.7793   14.6099 H           1 GOX       0.0581
     25 H12        -0.2373   11.1867   14.8821 H           1 GOX       0.2095
@<TRIPOS>BOND
     1     1     2   2
     2     1     3   1
     3     1     4   1
     4     2     5   1
     5     3     6   1
     6     3     7   1
     7     4    11   1
     8     7     8   1
     9     7     9   1
    10     9    10   1
    11     9    11   1
    12    11    12   1
    13    12    13   1
    14     3    14   1
    15     4    15   1
    16     5    16   1
    17     6    17   1
    18     7    18   1
    19     8    19   1
    20     9    20   1
    21    10    21   1
    22    11    22   1
    23    12    23   1
    24    12    24   1
    25    13    25   1
@<TRIPOS>SUBSTRUCTURE
     1  GOX      1

