@<TRIPOS>MOLECULE
2jdm_ligand_018
    26    26
SMALL
GAST_HUCK
****
This file was generated by PARSER (from files_GN.cpp)

@<TRIPOS>ATOM
      1 C1          7.4529   -0.5882   -6.7474 C.3         1 MFU       0.1875
      2 C2          6.8379   -0.1350   -5.3909 C.3         1 MFU       0.1341
      3 C3          6.3142   -1.3499   -4.5780 C.3         1 MFU       0.1140
      4 C4          7.4077   -2.4471   -4.4406 C.3         1 MFU       0.1095
      5 C5          7.9779   -2.8065   -5.8453 C.3         1 MFU       0.0873
      6 C6          9.1431   -3.8220   -5.7815 C.3         1 MFU      -0.0361
      7 O1          6.4617   -1.0952   -7.6720 O.3         1 MFU      -0.3520
      8 O2          5.7855    0.8053   -5.5846 O.3         1 MFU      -0.3841
      9 O3          5.8430   -0.9261   -3.2962 O.3         1 MFU      -0.3864
     10 O4          8.4553   -2.0014   -3.5781 O.3         1 MFU      -0.3866
     11 O5          8.4433   -1.6171   -6.5247 O.3         1 MFU      -0.3431
     12 CM          5.8709   -0.1565   -8.5856 C.3         1 MFU       0.0395
     13 H1          7.9970    0.2570   -7.1816 H           1 MFU       0.0937
     14 H2          7.6186    0.3622   -4.8067 H           1 MFU       0.0671
     15 H3          5.4564   -1.7826   -5.1013 H           1 MFU       0.0648
     16 H4          6.9630   -3.3424   -3.9960 H           1 MFU       0.0646
     17 H5          7.1839   -3.2747   -6.4373 H           1 MFU       0.0621
     18 H6          9.4595   -4.0867   -6.7924 H           1 MFU       0.0255
     19 H7          8.8260   -4.7322   -5.2687 H           1 MFU       0.0255
     20 H8          9.9980   -3.3970   -5.2524 H           1 MFU       0.0255
     21 H9          6.2213    1.6801   -5.5240 H           1 MFU       0.2101
     22 H10         6.5369   -0.3371   -2.9279 H           1 MFU       0.2100
     23 H11         8.2852   -2.4447   -2.7213 H           1 MFU       0.2100
     24 H12         5.1335   -0.6843   -9.1899 H           1 MFU       0.0525
     25 H13         6.6288    0.2584   -9.2525 H           1 MFU       0.0525
     26 H14         5.3670    0.6547   -8.0599 H           1 MFU       0.0525
@<TRIPOS>BOND
     1     1     2   1
     2     1     7   1
     3     1    11   1
     4     2     3   1
     5     2     8   1
     6     3     4   1
     7     3     9   1
     8     4     5   1
     9     4    10   1
    10     5     6   1
    11     5    11   1
    12     7    12   1
    13     1    13   1
    14     2    14   1
    15     3    15   1
    16     4    16   1
    17     5    17   1
    18     6    18   1
    19     6    19   1
    20     6    20   1
    21     8    21   1
    22     9    22   1
    23    10    23   1
    24    12    24   1
    25    12    25   1
    26    12    26   1
@<TRIPOS>SUBSTRUCTURE
     1  MFU      1

