@<TRIPOS>MOLECULE
2jdm_ligand_033
    26    26
SMALL
GAST_HUCK
****
This file was generated by PARSER (from files_GN.cpp)

@<TRIPOS>ATOM
      1 C1          9.4886    5.6878   -6.2650 C.3         1 MFU       0.1875
      2 C2          9.8673    5.2324   -4.8298 C.3         1 MFU       0.1341
      3 C3         10.6816    6.3413   -4.1068 C.3         1 MFU       0.1140
      4 C4         11.8938    6.7966   -4.9746 C.3         1 MFU       0.1095
      5 C5         11.5106    7.0849   -6.4621 C.3         1 MFU       0.0873
      6 C6         10.8992    8.4830   -6.7466 C.3         1 MFU      -0.0361
      7 O1          8.8021    4.6184   -6.9367 O.3         1 MFU      -0.3520
      8 O2         10.6135    4.0153   -4.8915 O.3         1 MFU      -0.3841
      9 O3          9.8289    7.4449   -3.7978 O.3         1 MFU      -0.3864
     10 O4         12.5634    7.8992   -4.3627 O.3         1 MFU      -0.3866
     11 O5         10.6810    6.0308   -7.0047 O.3         1 MFU      -0.3431
     12 CM          8.2043    4.9655   -8.2027 C.3         1 MFU       0.0395
     13 H1          8.8187    6.5499   -6.1969 H           1 MFU       0.0937
     14 H2          8.9546    5.0330   -4.2646 H           1 MFU       0.0671
     15 H3         11.0557    5.9441   -3.1579 H           1 MFU       0.0648
     16 H4         12.6116    5.9724   -4.9791 H           1 MFU       0.0646
     17 H5         12.4404    7.0503   -7.0368 H           1 MFU       0.0621
     18 H6         10.6335    8.5592   -7.8038 H           1 MFU       0.0255
     19 H7         11.6229    9.2693   -6.5178 H           1 MFU       0.0255
     20 H8         10.0033    8.6565   -6.1540 H           1 MFU       0.0255
     21 H9         10.7418    3.7484   -3.9566 H           1 MFU       0.2101
     22 H10         9.1618    7.1071   -3.1566 H           1 MFU       0.2100
     23 H11        11.8974    8.6169   -4.3127 H           1 MFU       0.2100
     24 H12         7.7330    4.0737   -8.6169 H           1 MFU       0.0525
     25 H13         8.9534    5.3211   -8.9130 H           1 MFU       0.0525
     26 H14         7.4335    5.7294   -8.0693 H           1 MFU       0.0525
@<TRIPOS>BOND
     1     1     2   1
     2     1     7   1
     3     1    11   1
     4     2     3   1
     5     2     8   1
     6     3     4   1
     7     3     9   1
     8     4     5   1
     9     4    10   1
    10     5     6   1
    11     5    11   1
    12     7    12   1
    13     1    13   1
    14     2    14   1
    15     3    15   1
    16     4    16   1
    17     5    17   1
    18     6    18   1
    19     6    19   1
    20     6    20   1
    21     8    21   1
    22     9    22   1
    23    10    23   1
    24    12    24   1
    25    12    25   1
    26    12    26   1
@<TRIPOS>SUBSTRUCTURE
     1  MFU      1

