@<TRIPOS>MOLECULE
2jdm_ligand_010
    26    26
SMALL
GAST_HUCK
****
This file was generated by PARSER (from files_GN.cpp)

@<TRIPOS>ATOM
      1 C1         10.7984    3.9847   -5.1951 C.3         1 MFU       0.1875
      2 C2         10.1876    4.4008   -3.8308 C.3         1 MFU       0.1341
      3 C3         11.1046    5.4122   -3.0919 C.3         1 MFU       0.1140
      4 C4         12.5619    4.8708   -2.9997 C.3         1 MFU       0.1095
      5 C5         13.0968    4.3622   -4.3763 C.3         1 MFU       0.0873
      6 C6         13.6010    5.4643   -5.3452 C.3         1 MFU      -0.0361
      7 O1          9.9721    2.9578   -5.7786 O.3         1 MFU      -0.3520
      8 O2         10.0037    3.2402   -3.0173 O.3         1 MFU      -0.3841
      9 O3         11.0482    6.6830   -3.7382 O.3         1 MFU      -0.3864
     10 O4         13.4437    5.8352   -2.4292 O.3         1 MFU      -0.3866
     11 O5         12.1420    3.4817   -5.0118 O.3         1 MFU      -0.3431
     12 CM         10.3164    2.5644   -7.1187 C.3         1 MFU       0.0395
     13 H1         10.7993    4.8553   -5.8602 H           1 MFU       0.0937
     14 H2          9.2076    4.8492   -3.9989 H           1 MFU       0.0671
     15 H3         10.7181    5.5571   -2.0778 H           1 MFU       0.0648
     16 H4         12.5524    4.0171   -2.3164 H           1 MFU       0.0646
     17 H5         13.9626    3.7320   -4.1703 H           1 MFU       0.0621
     18 H6         13.9486    5.0059   -6.2739 H           1 MFU       0.0255
     19 H7         14.4377    6.0042   -4.8971 H           1 MFU       0.0255
     20 H8         12.8152    6.1777   -5.5876 H           1 MFU       0.0255
     21 H9          9.9051    3.5855   -2.1006 H           1 MFU       0.2101
     22 H10        11.2221    7.3295   -3.0280 H           1 MFU       0.2100
     23 H11        13.0680    6.0397   -1.5389 H           1 MFU       0.2100
     24 H12         9.6215    1.7865   -7.4385 H           1 MFU       0.0525
     25 H13        11.3301    2.1574   -7.1640 H           1 MFU       0.0525
     26 H14        10.2287    3.4041   -7.8057 H           1 MFU       0.0525
@<TRIPOS>BOND
     1     1     2   1
     2     1     7   1
     3     1    11   1
     4     2     3   1
     5     2     8   1
     6     3     4   1
     7     3     9   1
     8     4     5   1
     9     4    10   1
    10     5     6   1
    11     5    11   1
    12     7    12   1
    13     1    13   1
    14     2    14   1
    15     3    15   1
    16     4    16   1
    17     5    17   1
    18     6    18   1
    19     6    19   1
    20     6    20   1
    21     8    21   1
    22     9    22   1
    23    10    23   1
    24    12    24   1
    25    12    25   1
    26    12    26   1
@<TRIPOS>SUBSTRUCTURE
     1  MFU      1

