@<TRIPOS>MOLECULE
2jdm_ligand_015
    26    26
SMALL
GAST_HUCK
****
This file was generated by PARSER (from files_GN.cpp)

@<TRIPOS>ATOM
      1 C1         17.1014    9.1280   -1.9166 C.3         1 MFU       0.1875
      2 C2         15.6816    8.4943   -1.8617 C.3         1 MFU       0.1341
      3 C3         14.5621    9.5691   -1.9150 C.3         1 MFU       0.1140
      4 C4         14.8276   10.7087   -0.8902 C.3         1 MFU       0.1095
      5 C5         16.2769   11.2703   -0.9719 C.3         1 MFU       0.0873
      6 C6         16.5689   12.2650   -2.1270 C.3         1 MFU      -0.0361
      7 O1         18.0477    8.0446   -1.7582 O.3         1 MFU      -0.3520
      8 O2         15.5502    7.7276   -0.6624 O.3         1 MFU      -0.3841
      9 O3         14.4395   10.0837   -3.2387 O.3         1 MFU      -0.3864
     10 O4         13.8613   11.7508   -1.0095 O.3         1 MFU      -0.3866
     11 O5         17.2340   10.1854   -0.9338 O.3         1 MFU      -0.3431
     12 CM         19.2212    8.2647   -0.9636 C.3         1 MFU       0.0395
     13 H1         17.2662    9.5463   -2.9127 H           1 MFU       0.0937
     14 H2         15.5607    7.8036   -2.7026 H           1 MFU       0.0671
     15 H3         13.6065    9.0974   -1.6672 H           1 MFU       0.0648
     16 H4         14.6954   10.2833    0.1072 H           1 MFU       0.0646
     17 H5         16.4468   11.8372   -0.0499 H           1 MFU       0.0621
     18 H6         17.6045   12.6042   -2.0680 H           1 MFU       0.0255
     19 H7         15.9224   13.1400   -2.0458 H           1 MFU       0.0255
     20 H8         16.4109   11.8165   -3.1064 H           1 MFU       0.0255
     21 H9         14.7324    7.1974   -0.7782 H           1 MFU       0.2101
     22 H10        13.5717   10.5442   -3.2550 H           1 MFU       0.2100
     23 H11        12.9957   11.3186   -0.8565 H           1 MFU       0.2100
     24 H12        19.8718    7.3961   -1.0560 H           1 MFU       0.0525
     25 H13        18.9422    8.3721    0.0845 H           1 MFU       0.0525
     26 H14        19.7721    9.1456   -1.2922 H           1 MFU       0.0525
@<TRIPOS>BOND
     1     1     2   1
     2     1     7   1
     3     1    11   1
     4     2     3   1
     5     2     8   1
     6     3     4   1
     7     3     9   1
     8     4     5   1
     9     4    10   1
    10     5     6   1
    11     5    11   1
    12     7    12   1
    13     1    13   1
    14     2    14   1
    15     3    15   1
    16     4    16   1
    17     5    17   1
    18     6    18   1
    19     6    19   1
    20     6    20   1
    21     8    21   1
    22     9    22   1
    23    10    23   1
    24    12    24   1
    25    12    25   1
    26    12    26   1
@<TRIPOS>SUBSTRUCTURE
     1  MFU      1

