@<TRIPOS>MOLECULE
2jdm_ligand_014
    26    26
SMALL
GAST_HUCK
****
This file was generated by PARSER (from files_GN.cpp)

@<TRIPOS>ATOM
      1 C1         11.0890    6.8842   -5.1045 C.3         1 MFU       0.1875
      2 C2         10.1115    6.2464   -4.0850 C.3         1 MFU       0.1341
      3 C3         10.0669    4.7030   -4.2387 C.3         1 MFU       0.1140
      4 C4          9.8438    4.2876   -5.7236 C.3         1 MFU       0.1095
      5 C5         10.7922    5.0389   -6.7100 C.3         1 MFU       0.0873
      6 C6         12.2437    4.4937   -6.8000 C.3         1 MFU      -0.0361
      7 O1         10.9659    8.3224   -5.1135 O.3         1 MFU      -0.3520
      8 O2          8.8005    6.7783   -4.2774 O.3         1 MFU      -0.3841
      9 O3         11.2651    4.1342   -3.7090 O.3         1 MFU      -0.3864
     10 O4          9.9494    2.8737   -5.8892 O.3         1 MFU      -0.3866
     11 O5         10.7684    6.4640   -6.4495 O.3         1 MFU      -0.3431
     12 CM         12.0101    9.0657   -4.4539 C.3         1 MFU       0.0395
     13 H1         12.1131    6.5767   -4.8748 H           1 MFU       0.0937
     14 H2         10.4267    6.5049   -3.0771 H           1 MFU       0.0671
     15 H3          9.2398    4.3126   -3.6359 H           1 MFU       0.0648
     16 H4          8.8217    4.5659   -5.9936 H           1 MFU       0.0646
     17 H5         10.3664    4.9290   -7.7109 H           1 MFU       0.0621
     18 H6         12.8304    5.1275   -7.4690 H           1 MFU       0.0255
     19 H7         12.2376    3.4808   -7.2009 H           1 MFU       0.0255
     20 H8         12.7278    4.4783   -5.8238 H           1 MFU       0.0255
     21 H9          8.4947    7.0910   -3.3894 H           1 MFU       0.2101
     22 H10        11.0678    3.1721   -3.6229 H           1 MFU       0.2100
     23 H11         9.1353    2.5055   -5.4842 H           1 MFU       0.2100
     24 H12        11.7444   10.1254   -4.4445 H           1 MFU       0.0525
     25 H13        12.9505    8.9514   -5.0052 H           1 MFU       0.0525
     26 H14        12.1458    8.7347   -3.4211 H           1 MFU       0.0525
@<TRIPOS>BOND
     1     1     2   1
     2     1     7   1
     3     1    11   1
     4     2     3   1
     5     2     8   1
     6     3     4   1
     7     3     9   1
     8     4     5   1
     9     4    10   1
    10     5     6   1
    11     5    11   1
    12     7    12   1
    13     1    13   1
    14     2    14   1
    15     3    15   1
    16     4    16   1
    17     5    17   1
    18     6    18   1
    19     6    19   1
    20     6    20   1
    21     8    21   1
    22     9    22   1
    23    10    23   1
    24    12    24   1
    25    12    25   1
    26    12    26   1
@<TRIPOS>SUBSTRUCTURE
     1  MFU      1

