@<TRIPOS>MOLECULE
2jdm_ligand_013
    26    26
SMALL
GAST_HUCK
****
This file was generated by PARSER (from files_GN.cpp)

@<TRIPOS>ATOM
      1 C1         14.4983    9.6851   -1.4190 C.3         1 MFU       0.1875
      2 C2         14.3754   11.1561   -0.9269 C.3         1 MFU       0.1341
      3 C3         15.7821   11.7707   -0.6890 C.3         1 MFU       0.1140
      4 C4         16.6820   11.6175   -1.9433 C.3         1 MFU       0.1095
      5 C5         16.6949   10.1262   -2.3971 C.3         1 MFU       0.0873
      6 C6         17.4850    9.8648   -3.6986 C.3         1 MFU      -0.0361
      7 O1         14.9540    8.8284   -0.3473 O.3         1 MFU      -0.3520
      8 O2         13.5935   11.2405    0.2653 O.3         1 MFU      -0.3841
      9 O3         15.6855   13.1532   -0.3366 O.3         1 MFU      -0.3864
     10 O4         16.2263   12.4909   -2.9806 O.3         1 MFU      -0.3866
     11 O5         15.3476    9.6348   -2.5892 O.3         1 MFU      -0.3431
     12 CM         15.3219    7.4826   -0.7050 C.3         1 MFU       0.0395
     13 H1         13.5033    9.3503   -1.7248 H           1 MFU       0.0937
     14 H2         13.8642   11.7330   -1.7030 H           1 MFU       0.0671
     15 H3         16.2552   11.2406    0.1418 H           1 MFU       0.0648
     16 H4         17.6979   11.9177   -1.6705 H           1 MFU       0.0646
     17 H5         17.1927    9.5453   -1.6134 H           1 MFU       0.0621
     18 H6         17.5033    8.7900   -3.8996 H           1 MFU       0.0255
     19 H7         18.5138   10.2176   -3.5945 H           1 MFU       0.0255
     20 H8         17.0157   10.3692   -4.5472 H           1 MFU       0.0255
     21 H9         12.6610   11.1528   -0.0272 H           1 MFU       0.2101
     22 H10        16.0697   13.2264    0.5646 H           1 MFU       0.2100
     23 H11        16.9639   12.5207   -3.6248 H           1 MFU       0.2100
     24 H12        15.5515    6.9345    0.2105 H           1 MFU       0.0525
     25 H13        16.2155    7.4671   -1.3314 H           1 MFU       0.0525
     26 H14        14.5101    6.9749   -1.2293 H           1 MFU       0.0525
@<TRIPOS>BOND
     1     1     2   1
     2     1     7   1
     3     1    11   1
     4     2     3   1
     5     2     8   1
     6     3     4   1
     7     3     9   1
     8     4     5   1
     9     4    10   1
    10     5     6   1
    11     5    11   1
    12     7    12   1
    13     1    13   1
    14     2    14   1
    15     3    15   1
    16     4    16   1
    17     5    17   1
    18     6    18   1
    19     6    19   1
    20     6    20   1
    21     8    21   1
    22     9    22   1
    23    10    23   1
    24    12    24   1
    25    12    25   1
    26    12    26   1
@<TRIPOS>SUBSTRUCTURE
     1  MFU      1

