@<TRIPOS>MOLECULE
2jdm_ligand_027
    26    26
SMALL
GAST_HUCK
****
This file was generated by PARSER (from files_GN.cpp)

@<TRIPOS>ATOM
      1 C1         11.8681    1.9165   -6.2089 C.3         1 MFU       0.1875
      2 C2         12.5719    0.9142   -5.2490 C.3         1 MFU       0.1341
      3 C3         13.1272    1.6349   -3.9906 C.3         1 MFU       0.1140
      4 C4         12.0304    2.4916   -3.3068 C.3         1 MFU       0.1095
      5 C5         11.3653    3.4420   -4.3441 C.3         1 MFU       0.0873
      6 C6         10.1781    4.2383   -3.7495 C.3         1 MFU      -0.0361
      7 O1         12.7910    2.8204   -6.8594 O.3         1 MFU      -0.3520
      8 O2         13.6168    0.2064   -5.9177 O.3         1 MFU      -0.3841
      9 O3         13.6775    0.6901   -3.0727 O.3         1 MFU      -0.3864
     10 O4         11.0371    1.6485   -2.7169 O.3         1 MFU      -0.3866
     11 O5         10.8833    2.6914   -5.4887 O.3         1 MFU      -0.3431
     12 CM         13.2895    2.4426   -8.1578 C.3         1 MFU       0.0395
     13 H1         11.3079    1.3437   -6.9516 H           1 MFU       0.0937
     14 H2         11.8327    0.1717   -4.9333 H           1 MFU       0.0671
     15 H3         13.9434    2.2923   -4.2964 H           1 MFU       0.0648
     16 H4         12.4765    3.0878   -2.5083 H           1 MFU       0.0646
     17 H5         12.1102    4.1704   -4.6812 H           1 MFU       0.0621
     18 H6          9.7920    4.9424   -4.4905 H           1 MFU       0.0255
     19 H7         10.5026    4.8032   -2.8723 H           1 MFU       0.0255
     20 H8          9.3674    3.5679   -3.4555 H           1 MFU       0.0255
     21 H9         13.9469   -0.4487   -5.2676 H           1 MFU       0.2101
     22 H10        12.9479    0.0728   -2.8551 H           1 MFU       0.2100
     23 H11        11.4692    1.2333   -1.9362 H           1 MFU       0.2100
     24 H12        13.9946    3.2082   -8.4941 H           1 MFU       0.0525
     25 H13        12.4690    2.3860   -8.8782 H           1 MFU       0.0525
     26 H14        13.8139    1.4840   -8.1240 H           1 MFU       0.0525
@<TRIPOS>BOND
     1     1     2   1
     2     1     7   1
     3     1    11   1
     4     2     3   1
     5     2     8   1
     6     3     4   1
     7     3     9   1
     8     4     5   1
     9     4    10   1
    10     5     6   1
    11     5    11   1
    12     7    12   1
    13     1    13   1
    14     2    14   1
    15     3    15   1
    16     4    16   1
    17     5    17   1
    18     6    18   1
    19     6    19   1
    20     6    20   1
    21     8    21   1
    22     9    22   1
    23    10    23   1
    24    12    24   1
    25    12    25   1
    26    12    26   1
@<TRIPOS>SUBSTRUCTURE
     1  MFU      1

