@<TRIPOS>MOLECULE
2jdm_ligand_023
    26    26
SMALL
GAST_HUCK
****
This file was generated by PARSER (from files_GN.cpp)

@<TRIPOS>ATOM
      1 C1         15.4043    8.9252   -1.5821 C.3         1 MFU       0.1875
      2 C2         14.1785    9.8486   -1.8376 C.3         1 MFU       0.1341
      3 C3         14.2828   10.5118   -3.2398 C.3         1 MFU       0.1140
      4 C4         14.4827    9.4476   -4.3487 C.3         1 MFU       0.1095
      5 C5         15.6868    8.5262   -3.9795 C.3         1 MFU       0.0873
      6 C6         15.9215    7.3488   -4.9557 C.3         1 MFU      -0.0361
      7 O1         16.5903    9.7258   -1.4059 O.3         1 MFU      -0.3520
      8 O2         14.0760   10.8370   -0.8152 O.3         1 MFU      -0.3841
      9 O3         13.1567   11.3317   -3.5420 O.3         1 MFU      -0.3864
     10 O4         13.2864    8.6884   -4.5538 O.3         1 MFU      -0.3866
     11 O5         15.5168    7.9667   -2.6578 O.3         1 MFU      -0.3431
     12 CM         17.8316    8.9972   -1.3620 C.3         1 MFU       0.0395
     13 H1         15.2210    8.3687   -0.6608 H           1 MFU       0.0937
     14 H2         13.2745    9.2294   -1.7942 H           1 MFU       0.0671
     15 H3         15.1449   11.1767   -3.2419 H           1 MFU       0.0648
     16 H4         14.7054    9.9586   -5.2839 H           1 MFU       0.0646
     17 H5         16.6078    9.1292   -4.0031 H           1 MFU       0.0621
     18 H6         16.8116    6.7873   -4.6478 H           1 MFU       0.0255
     19 H7         16.0801    7.7187   -5.9707 H           1 MFU       0.0255
     20 H8         15.0652    6.6704   -4.9490 H           1 MFU       0.0255
     21 H9         13.1095   10.9160   -0.6561 H           1 MFU       0.2101
     22 H10        12.4015   10.9830   -3.0028 H           1 MFU       0.2100
     23 H11        13.1641    8.1476   -3.7517 H           1 MFU       0.2100
     24 H12        18.6282    9.6980   -1.0984 H           1 MFU       0.0525
     25 H13        18.0717    8.5651   -2.3312 H           1 MFU       0.0525
     26 H14        17.7995    8.2002   -0.6105 H           1 MFU       0.0525
@<TRIPOS>BOND
     1     1     2   1
     2     1     7   1
     3     1    11   1
     4     2     3   1
     5     2     8   1
     6     3     4   1
     7     3     9   1
     8     4     5   1
     9     4    10   1
    10     5     6   1
    11     5    11   1
    12     7    12   1
    13     1    13   1
    14     2    14   1
    15     3    15   1
    16     4    16   1
    17     5    17   1
    18     6    18   1
    19     6    19   1
    20     6    20   1
    21     8    21   1
    22     9    22   1
    23    10    23   1
    24    12    24   1
    25    12    25   1
    26    12    26   1
@<TRIPOS>SUBSTRUCTURE
     1  MFU      1

