@<TRIPOS>MOLECULE
2jdm_ligand_022
    26    26
SMALL
GAST_HUCK
****
This file was generated by PARSER (from files_GN.cpp)

@<TRIPOS>ATOM
      1 C1         15.4942   11.2126   -3.2968 C.3         1 MFU       0.1875
      2 C2         14.7074   10.7427   -2.0370 C.3         1 MFU       0.1341
      3 C3         13.8624    9.4804   -2.3444 C.3         1 MFU       0.1140
      4 C4         12.9694    9.6955   -3.6037 C.3         1 MFU       0.1095
      5 C5         13.7683   10.2817   -4.8079 C.3         1 MFU       0.0873
      6 C6         14.6011    9.2562   -5.6205 C.3         1 MFU      -0.0361
      7 O1         16.1753   12.4429   -2.9853 O.3         1 MFU      -0.3520
      8 O2         13.8670   11.8158   -1.5984 O.3         1 MFU      -0.3841
      9 O3         14.7059    8.3373   -2.4788 O.3         1 MFU      -0.3864
     10 O4         12.2855    8.4935   -3.9497 O.3         1 MFU      -0.3866
     11 O5         14.5708   11.4150   -4.3965 O.3         1 MFU      -0.3431
     12 CM         16.9921   12.9799   -4.0409 C.3         1 MFU       0.0395
     13 H1         16.2381   10.4507   -3.5635 H           1 MFU       0.0937
     14 H2         15.4094   10.5188   -1.2289 H           1 MFU       0.0671
     15 H3         13.2153    9.2834   -1.4862 H           1 MFU       0.0648
     16 H4         12.2038   10.4291   -3.3380 H           1 MFU       0.0646
     17 H5         13.0351   10.6923   -5.5075 H           1 MFU       0.0621
     18 H6         15.1494    9.7689   -6.4117 H           1 MFU       0.0255
     19 H7         13.9441    8.5187   -6.0812 H           1 MFU       0.0255
     20 H8         15.3189    8.7341   -4.9897 H           1 MFU       0.0255
     21 H9         13.1534   11.3978   -1.0671 H           1 MFU       0.2101
     22 H10        14.0962    7.5687   -2.5121 H           1 MFU       0.2100
     23 H11        11.8126    8.2176   -3.1352 H           1 MFU       0.2100
     24 H12        17.4702   13.8891   -3.6718 H           1 MFU       0.0525
     25 H13        16.3895   13.2435   -4.9119 H           1 MFU       0.0525
     26 H14        17.7724   12.2739   -4.3335 H           1 MFU       0.0525
@<TRIPOS>BOND
     1     1     2   1
     2     1     7   1
     3     1    11   1
     4     2     3   1
     5     2     8   1
     6     3     4   1
     7     3     9   1
     8     4     5   1
     9     4    10   1
    10     5     6   1
    11     5    11   1
    12     7    12   1
    13     1    13   1
    14     2    14   1
    15     3    15   1
    16     4    16   1
    17     5    17   1
    18     6    18   1
    19     6    19   1
    20     6    20   1
    21     8    21   1
    22     9    22   1
    23    10    23   1
    24    12    24   1
    25    12    25   1
    26    12    26   1
@<TRIPOS>SUBSTRUCTURE
     1  MFU      1

