@<TRIPOS>MOLECULE
2jdm_ligand_019
    26    26
SMALL
GAST_HUCK
****
This file was generated by PARSER (from files_GN.cpp)

@<TRIPOS>ATOM
      1 C1         16.1723    9.8591   -3.0330 C.3         1 MFU       0.1875
      2 C2         14.8522   10.5341   -2.5555 C.3         1 MFU       0.1341
      3 C3         14.9893   11.0493   -1.0950 C.3         1 MFU       0.1140
      4 C4         16.2555   11.9339   -0.9260 C.3         1 MFU       0.1095
      5 C5         17.5119   11.1825   -1.4571 C.3         1 MFU       0.0873
      6 C6         18.7907   12.0526   -1.4138 C.3         1 MFU      -0.0361
      7 O1         16.4320    8.6038   -2.3597 O.3         1 MFU      -0.3520
      8 O2         13.7550    9.6305   -2.6696 O.3         1 MFU      -0.3841
      9 O3         13.8403   11.8010   -0.7025 O.3         1 MFU      -0.3864
     10 O4         16.0827   13.1883   -1.5927 O.3         1 MFU      -0.3866
     11 O5         17.2977   10.7418   -2.8184 O.3         1 MFU      -0.3431
     12 CM         15.9487    7.4076   -2.9960 C.3         1 MFU       0.0395
     13 H1         16.1141    9.7179   -4.1170 H           1 MFU       0.0937
     14 H2         14.6412   11.3822   -3.2126 H           1 MFU       0.0671
     15 H3         15.0655   10.1902   -0.4223 H           1 MFU       0.0648
     16 H4         16.3907   12.1481    0.1373 H           1 MFU       0.0646
     17 H5         17.6974   10.3110   -0.8192 H           1 MFU       0.0621
     18 H6         19.6538   11.4587   -1.7205 H           1 MFU       0.0255
     19 H7         18.9653   12.4209   -0.4008 H           1 MFU       0.0255
     20 H8         18.7009   12.9053   -2.0890 H           1 MFU       0.0255
     21 H9         12.9623   10.1441   -2.4075 H           1 MFU       0.2101
     22 H10        13.0924   11.1692   -0.6973 H           1 MFU       0.2100
     23 H11        16.1082   12.9888   -2.5520 H           1 MFU       0.2100
     24 H12        16.1813    6.5579   -2.3544 H           1 MFU       0.0525
     25 H13        16.4438    7.2570   -3.9578 H           1 MFU       0.0525
     26 H14        14.8688    7.4395   -3.1459 H           1 MFU       0.0525
@<TRIPOS>BOND
     1     1     2   1
     2     1     7   1
     3     1    11   1
     4     2     3   1
     5     2     8   1
     6     3     4   1
     7     3     9   1
     8     4     5   1
     9     4    10   1
    10     5     6   1
    11     5    11   1
    12     7    12   1
    13     1    13   1
    14     2    14   1
    15     3    15   1
    16     4    16   1
    17     5    17   1
    18     6    18   1
    19     6    19   1
    20     6    20   1
    21     8    21   1
    22     9    22   1
    23    10    23   1
    24    12    24   1
    25    12    25   1
    26    12    26   1
@<TRIPOS>SUBSTRUCTURE
     1  MFU      1

