@<TRIPOS>MOLECULE
2jdm_ligand_029
    26    26
SMALL
GAST_HUCK
****
This file was generated by PARSER (from files_GN.cpp)

@<TRIPOS>ATOM
      1 C1         16.1603    9.1006   -3.7819 C.3         1 MFU       0.1875
      2 C2         14.8352    9.6323   -4.3962 C.3         1 MFU       0.1341
      3 C3         14.2356   10.7969   -3.5662 C.3         1 MFU       0.1140
      4 C4         14.1891   10.4563   -2.0565 C.3         1 MFU       0.1095
      5 C5         15.5110    9.8342   -1.5174 C.3         1 MFU       0.0873
      6 C6         16.6473   10.8489   -1.1842 C.3         1 MFU      -0.0361
      7 O1         16.5689    7.9351   -4.5286 O.3         1 MFU      -0.3520
      8 O2         13.8967    8.5579   -4.4753 O.3         1 MFU      -0.3841
      9 O3         14.9292   12.0236   -3.8017 O.3         1 MFU      -0.3864
     10 O4         13.7788   11.5992   -1.2899 O.3         1 MFU      -0.3866
     11 O5         15.9672    8.7662   -2.3867 O.3         1 MFU      -0.3431
     12 CM         17.5607    7.0984   -3.8901 C.3         1 MFU       0.0395
     13 H1         16.9410    9.8581   -3.8795 H           1 MFU       0.0937
     14 H2         15.0245    9.9632   -5.4225 H           1 MFU       0.0671
     15 H3         13.2116   10.9743   -3.8969 H           1 MFU       0.0648
     16 H4         13.4206    9.6752   -1.9392 H           1 MFU       0.0646
     17 H5         15.2643    9.3538   -0.5602 H           1 MFU       0.0621
     18 H6         17.5388   10.3097   -0.8656 H           1 MFU       0.0255
     19 H7         16.3451   11.5185   -0.3730 H           1 MFU       0.0255
     20 H8         16.9196   11.4568   -2.0463 H           1 MFU       0.0255
     21 H9         13.1419    8.9054   -4.9980 H           1 MFU       0.2101
     22 H10        15.8664   11.7828   -3.9837 H           1 MFU       0.2100
     23 H11        12.9336   11.3322   -0.8822 H           1 MFU       0.2100
     24 H12        17.9223    6.3684   -4.6260 H           1 MFU       0.0525
     25 H13        17.1088    6.5395   -3.0541 H           1 MFU       0.0525
     26 H14        18.4264    7.6723   -3.5261 H           1 MFU       0.0525
@<TRIPOS>BOND
     1     1     2   1
     2     1     7   1
     3     1    11   1
     4     2     3   1
     5     2     8   1
     6     3     4   1
     7     3     9   1
     8     4     5   1
     9     4    10   1
    10     5     6   1
    11     5    11   1
    12     7    12   1
    13     1    13   1
    14     2    14   1
    15     3    15   1
    16     4    16   1
    17     5    17   1
    18     6    18   1
    19     6    19   1
    20     6    20   1
    21     8    21   1
    22     9    22   1
    23    10    23   1
    24    12    24   1
    25    12    25   1
    26    12    26   1
@<TRIPOS>SUBSTRUCTURE
     1  MFU      1

