@<TRIPOS>MOLECULE
2jdm_ligand_006
    26    26
SMALL
GAST_HUCK
****
This file was generated by PARSER (from files_GN.cpp)

@<TRIPOS>ATOM
      1 C1         11.3567    4.6495   -6.1001 C.3         1 MFU       0.1875
      2 C2         10.1194    5.5883   -5.9766 C.3         1 MFU       0.1341
      3 C3          9.6966    5.7625   -4.4942 C.3         1 MFU       0.1140
      4 C4         10.9010    6.1859   -3.6141 C.3         1 MFU       0.1095
      5 C5         12.1118    5.2326   -3.8370 C.3         1 MFU       0.0873
      6 C6         13.3805    5.6962   -3.0889 C.3         1 MFU      -0.0361
      7 O1         11.0603    3.2790   -5.7429 O.3         1 MFU      -0.3520
      8 O2          9.0180    5.1123   -6.7505 O.3         1 MFU      -0.3841
      9 O3          8.6644    6.7428   -4.4066 O.3         1 MFU      -0.3864
     10 O4         11.2514    7.5402   -3.9228 O.3         1 MFU      -0.3866
     11 O5         12.4145    5.1274   -5.2446 O.3         1 MFU      -0.3431
     12 CM         10.5219    2.4315   -6.7718 C.3         1 MFU       0.0395
     13 H1         11.7469    4.7145   -7.1202 H           1 MFU       0.0937
     14 H2         10.3901    6.5688   -6.3871 H           1 MFU       0.0671
     15 H3          9.2984    4.8118   -4.1313 H           1 MFU       0.0648
     16 H4         10.5775    6.1382   -2.5668 H           1 MFU       0.0646
     17 H5         11.8474    4.2382   -3.4468 H           1 MFU       0.0621
     18 H6         14.1738    4.9664   -3.2298 H           1 MFU       0.0255
     19 H7         13.1806    5.7917   -2.0196 H           1 MFU       0.0255
     20 H8         13.7227    6.6566   -3.4730 H           1 MFU       0.0255
     21 H9          9.3123    5.1435   -7.6793 H           1 MFU       0.2101
     22 H10         8.5398    6.9233   -3.4462 H           1 MFU       0.2100
     23 H11        11.4489    7.9268   -3.0366 H           1 MFU       0.2100
     24 H12        10.3342    1.4488   -6.3380 H           1 MFU       0.0525
     25 H13        11.2364    2.3167   -7.5853 H           1 MFU       0.0525
     26 H14         9.5828    2.8160   -7.1623 H           1 MFU       0.0525
@<TRIPOS>BOND
     1     1     2   1
     2     1     7   1
     3     1    11   1
     4     2     3   1
     5     2     8   1
     6     3     4   1
     7     3     9   1
     8     4     5   1
     9     4    10   1
    10     5     6   1
    11     5    11   1
    12     7    12   1
    13     1    13   1
    14     2    14   1
    15     3    15   1
    16     4    16   1
    17     5    17   1
    18     6    18   1
    19     6    19   1
    20     6    20   1
    21     8    21   1
    22     9    22   1
    23    10    23   1
    24    12    24   1
    25    12    25   1
    26    12    26   1
@<TRIPOS>SUBSTRUCTURE
     1  MFU      1

