@<TRIPOS>MOLECULE
2jdm_ligand_000
    26    26
SMALL
GAST_HUCK
****
This file was generated by PARSER (from files_GN.cpp)

@<TRIPOS>ATOM
      1 C1         12.4443    4.0278   -4.3487 C.3         1 MFU       0.1875
      2 C2         12.1644    4.6064   -2.9355 C.3         1 MFU       0.1341
      3 C3         10.7108    5.1486   -2.8597 C.3         1 MFU       0.1140
      4 C4         10.3901    6.1249   -4.0273 C.3         1 MFU       0.1095
      5 C5         10.8129    5.5471   -5.4146 C.3         1 MFU       0.0873
      6 C6          9.8147    4.5401   -6.0488 C.3         1 MFU      -0.0361
      7 O1         13.8162    3.5924   -4.4138 O.3         1 MFU      -0.3520
      8 O2         13.0943    5.6481   -2.6470 O.3         1 MFU      -0.3841
      9 O3          9.8193    4.0353   -2.8475 O.3         1 MFU      -0.3864
     10 O4          9.0173    6.5240   -4.0439 O.3         1 MFU      -0.3866
     11 O5         12.1637    5.0305   -5.3543 O.3         1 MFU      -0.3431
     12 CM         14.2405    3.1286   -5.7085 C.3         1 MFU       0.0395
     13 H1         11.8117    3.1520   -4.4964 H           1 MFU       0.0937
     14 H2         12.3030    3.8250   -2.1824 H           1 MFU       0.0671
     15 H3         10.5730    5.6741   -1.9098 H           1 MFU       0.0648
     16 H4         10.9704    7.0391   -3.8643 H           1 MFU       0.0646
     17 H5         10.8531    6.3936   -6.1050 H           1 MFU       0.0621
     18 H6         10.2060    4.1870   -7.0043 H           1 MFU       0.0255
     19 H7          8.8537    5.0223   -6.2336 H           1 MFU       0.0255
     20 H8          9.6438    3.6749   -5.4082 H           1 MFU       0.0255
     21 H9         12.7387    6.0942   -1.8507 H           1 MFU       0.2101
     22 H10         9.8159    3.7525   -1.8959 H           1 MFU       0.2100
     23 H11         8.8390    6.9418   -3.1765 H           1 MFU       0.2100
     24 H12        15.2592    2.7529   -5.6299 H           1 MFU       0.0525
     25 H13        14.2303    3.9457   -6.4319 H           1 MFU       0.0525
     26 H14        13.6129    2.3122   -6.0684 H           1 MFU       0.0525
@<TRIPOS>BOND
     1     1     2   1
     2     1     7   1
     3     1    11   1
     4     2     3   1
     5     2     8   1
     6     3     4   1
     7     3     9   1
     8     4     5   1
     9     4    10   1
    10     5     6   1
    11     5    11   1
    12     7    12   1
    13     1    13   1
    14     2    14   1
    15     3    15   1
    16     4    16   1
    17     5    17   1
    18     6    18   1
    19     6    19   1
    20     6    20   1
    21     8    21   1
    22     9    22   1
    23    10    23   1
    24    12    24   1
    25    12    25   1
    26    12    26   1
@<TRIPOS>SUBSTRUCTURE
     1  MFU      1

