@<TRIPOS>MOLECULE
2jdm_ligand_012
    26    26
SMALL
GAST_HUCK
****
This file was generated by PARSER (from files_GN.cpp)

@<TRIPOS>ATOM
      1 C1         11.6244    4.3680   -4.8186 C.3         1 MFU       0.1875
      2 C2         12.4704    3.5133   -3.8382 C.3         1 MFU       0.1341
      3 C3         11.5794    2.4933   -3.0754 C.3         1 MFU       0.1140
      4 C4         10.7217    1.6477   -4.0589 C.3         1 MFU       0.1095
      5 C5          9.9725    2.5884   -5.0481 C.3         1 MFU       0.0873
      6 C6          9.1882    1.8167   -6.1374 C.3         1 MFU      -0.0361
      7 O1         10.7879    5.2831   -4.0772 O.3         1 MFU      -0.3520
      8 O2         13.1988    4.3141   -2.9077 O.3         1 MFU      -0.3841
      9 O3         12.4113    1.6487   -2.2792 O.3         1 MFU      -0.3864
     10 O4         11.5479    0.7120   -4.7571 O.3         1 MFU      -0.3866
     11 O5         10.8832    3.4965   -5.7010 O.3         1 MFU      -0.3431
     12 CM          9.8226    6.0165   -4.8553 C.3         1 MFU       0.0395
     13 H1         12.3229    4.9482   -5.4308 H           1 MFU       0.0937
     14 H2         13.2097    2.9546   -4.4164 H           1 MFU       0.0671
     15 H3         10.9095    3.0340   -2.3965 H           1 MFU       0.0648
     16 H4          9.9811    1.0758   -3.4836 H           1 MFU       0.0646
     17 H5          9.2423    3.1654   -4.4785 H           1 MFU       0.0621
     18 H6          8.6355    2.5231   -6.7593 H           1 MFU       0.0255
     19 H7          8.4754    1.1301   -5.6776 H           1 MFU       0.0255
     20 H8          9.8666    1.2504   -6.7746 H           1 MFU       0.0255
     21 H9         12.6456    5.1134   -2.7465 H           1 MFU       0.2101
     22 H10        11.8735    0.8461   -2.1040 H           1 MFU       0.2100
     23 H11        11.7039   -0.0084   -4.1007 H           1 MFU       0.2100
     24 H12         9.3242    6.7237   -4.1960 H           1 MFU       0.0525
     25 H13         9.0710    5.3514   -5.2767 H           1 MFU       0.0525
     26 H14        10.3049    6.5792   -5.6568 H           1 MFU       0.0525
@<TRIPOS>BOND
     1     1     2   1
     2     1     7   1
     3     1    11   1
     4     2     3   1
     5     2     8   1
     6     3     4   1
     7     3     9   1
     8     4     5   1
     9     4    10   1
    10     5     6   1
    11     5    11   1
    12     7    12   1
    13     1    13   1
    14     2    14   1
    15     3    15   1
    16     4    16   1
    17     5    17   1
    18     6    18   1
    19     6    19   1
    20     6    20   1
    21     8    21   1
    22     9    22   1
    23    10    23   1
    24    12    24   1
    25    12    25   1
    26    12    26   1
@<TRIPOS>SUBSTRUCTURE
     1  MFU      1

