@<TRIPOS>MOLECULE
2jdm_ligand_030
    26    26
SMALL
GAST_HUCK
****
This file was generated by PARSER (from files_GN.cpp)

@<TRIPOS>ATOM
      1 C1          4.7044   -0.3103   -4.7657 C.3         1 MFU       0.1875
      2 C2          6.1576   -0.3753   -4.2113 C.3         1 MFU       0.1341
      3 C3          6.2100   -1.1850   -2.8862 C.3         1 MFU       0.1140
      4 C4          5.5610   -2.5847   -3.0586 C.3         1 MFU       0.1095
      5 C5          4.1330   -2.4318   -3.6635 C.3         1 MFU       0.0873
      6 C6          3.4747   -3.7960   -3.9750 C.3         1 MFU      -0.0361
      7 O1          3.8253    0.4999   -3.9528 O.3         1 MFU      -0.3520
      8 O2          6.7041    0.9299   -4.0238 O.3         1 MFU      -0.3841
      9 O3          7.5639   -1.3210   -2.4534 O.3         1 MFU      -0.3864
     10 O4          6.3919   -3.4147   -3.8740 O.3         1 MFU      -0.3866
     11 O5          4.1648   -1.6455   -4.8759 O.3         1 MFU      -0.3431
     12 CM          3.6849    1.8911   -4.2946 C.3         1 MFU       0.0395
     13 H1          4.7489    0.0896   -5.7840 H           1 MFU       0.0937
     14 H2          6.7841   -0.8862   -4.9515 H           1 MFU       0.0671
     15 H3          5.6605   -0.6415   -2.1104 H           1 MFU       0.0648
     16 H4          5.4900   -3.0653   -2.0766 H           1 MFU       0.0646
     17 H5          3.4964   -1.9310   -2.9253 H           1 MFU       0.0621
     18 H6          2.4503   -3.6439   -4.3228 H           1 MFU       0.0255
     19 H7          3.4445   -4.4223   -3.0798 H           1 MFU       0.0255
     20 H8          4.0310   -4.3202   -4.7537 H           1 MFU       0.0255
     21 H9          6.6697    1.3505   -4.9049 H           1 MFU       0.2101
     22 H10         7.8077   -0.4294   -2.1199 H           1 MFU       0.2100
     23 H11         7.1925   -3.5725   -3.3307 H           1 MFU       0.2100
     24 H12         3.0304    2.3582   -3.5546 H           1 MFU       0.0525
     25 H13         3.2259    2.0010   -5.2804 H           1 MFU       0.0525
     26 H14         4.6435    2.4109   -4.2803 H           1 MFU       0.0525
@<TRIPOS>BOND
     1     1     2   1
     2     1     7   1
     3     1    11   1
     4     2     3   1
     5     2     8   1
     6     3     4   1
     7     3     9   1
     8     4     5   1
     9     4    10   1
    10     5     6   1
    11     5    11   1
    12     7    12   1
    13     1    13   1
    14     2    14   1
    15     3    15   1
    16     4    16   1
    17     5    17   1
    18     6    18   1
    19     6    19   1
    20     6    20   1
    21     8    21   1
    22     9    22   1
    23    10    23   1
    24    12    24   1
    25    12    25   1
    26    12    26   1
@<TRIPOS>SUBSTRUCTURE
     1  MFU      1

