@<TRIPOS>MOLECULE
2jdm_ligand_011
    26    26
SMALL
GAST_HUCK
****
This file was generated by PARSER (from files_GN.cpp)

@<TRIPOS>ATOM
      1 C1          9.6981    6.0344   -4.4007 C.3         1 MFU       0.1875
      2 C2         10.6185    5.5515   -3.2487 C.3         1 MFU       0.1341
      3 C3         12.1202    5.6861   -3.6298 C.3         1 MFU       0.1140
      4 C4         12.4498    7.1044   -4.1747 C.3         1 MFU       0.1095
      5 C5         11.4483    7.4812   -5.3090 C.3         1 MFU       0.0873
      6 C6         11.6610    8.9221   -5.8405 C.3         1 MFU      -0.0361
      7 O1          9.6946    5.0699   -5.4748 O.3         1 MFU      -0.3520
      8 O2         10.3065    4.1919   -2.9235 O.3         1 MFU      -0.3841
      9 O3         12.9520    5.3569   -2.5141 O.3         1 MFU      -0.3864
     10 O4         12.3893    8.0809   -3.1302 O.3         1 MFU      -0.3866
     11 O5         10.0791    7.3558   -4.8466 O.3         1 MFU      -0.3431
     12 CM          9.1556    5.5387   -6.7232 C.3         1 MFU       0.0395
     13 H1          8.6916    6.1226   -3.9918 H           1 MFU       0.0937
     14 H2         10.4158    6.1688   -2.3681 H           1 MFU       0.0671
     15 H3         12.3498    4.9569   -4.4131 H           1 MFU       0.0648
     16 H4         13.4660    7.1051   -4.5802 H           1 MFU       0.0646
     17 H5         11.6010    6.8126   -6.1622 H           1 MFU       0.0621
     18 H6         10.9755    9.1203   -6.6714 H           1 MFU       0.0255
     19 H7         12.6875    9.0518   -6.2026 H           1 MFU       0.0255
     20 H8         11.4679    9.6576   -5.0527 H           1 MFU       0.0255
     21 H9         10.1873    4.1781   -1.9461 H           1 MFU       0.2101
     22 H10        12.6480    5.9270   -1.7780 H           1 MFU       0.2100
     23 H11        13.1865    7.9159   -2.5789 H           1 MFU       0.2100
     24 H12         9.1049    4.6940   -7.4113 H           1 MFU       0.0525
     25 H13         9.8006    6.3073   -7.1557 H           1 MFU       0.0525
     26 H14         8.1436    5.9368   -6.6003 H           1 MFU       0.0525
@<TRIPOS>BOND
     1     1     2   1
     2     1     7   1
     3     1    11   1
     4     2     3   1
     5     2     8   1
     6     3     4   1
     7     3     9   1
     8     4     5   1
     9     4    10   1
    10     5     6   1
    11     5    11   1
    12     7    12   1
    13     1    13   1
    14     2    14   1
    15     3    15   1
    16     4    16   1
    17     5    17   1
    18     6    18   1
    19     6    19   1
    20     6    20   1
    21     8    21   1
    22     9    22   1
    23    10    23   1
    24    12    24   1
    25    12    25   1
    26    12    26   1
@<TRIPOS>SUBSTRUCTURE
     1  MFU      1

