@<TRIPOS>MOLECULE
2jdm_ligand_032
    26    26
SMALL
GAST_HUCK
****
This file was generated by PARSER (from files_GN.cpp)

@<TRIPOS>ATOM
      1 C1         10.9416   -0.2437   -5.8262 C.3         1 MFU       0.1875
      2 C2         10.1249    1.0561   -5.5990 C.3         1 MFU       0.1341
      3 C3         10.6514    1.8301   -4.3508 C.3         1 MFU       0.1140
      4 C4         12.1870    2.0268   -4.4170 C.3         1 MFU       0.1095
      5 C5         12.8925    0.6627   -4.6632 C.3         1 MFU       0.0873
      6 C6         14.4260    0.8002   -4.8147 C.3         1 MFU      -0.0361
      7 O1         10.5686   -1.2278   -4.8402 O.3         1 MFU      -0.3520
      8 O2          8.7412    0.7504   -5.4598 O.3         1 MFU      -0.3841
      9 O3         10.0074    3.0994   -4.2320 O.3         1 MFU      -0.3864
     10 O4         12.5302    2.9940   -5.4261 O.3         1 MFU      -0.3866
     11 O5         12.3625    0.0308   -5.8527 O.3         1 MFU      -0.3431
     12 CM         11.4037   -2.3916   -4.8362 C.3         1 MFU       0.0395
     13 H1         10.6608   -0.6232   -6.8168 H           1 MFU       0.0937
     14 H2         10.2315    1.6869   -6.4870 H           1 MFU       0.0671
     15 H3         10.4239    1.2491   -3.4496 H           1 MFU       0.0648
     16 H4         12.5221    2.4394   -3.4493 H           1 MFU       0.0646
     17 H5         12.7154    0.0101   -3.7989 H           1 MFU       0.0621
     18 H6         14.8651   -0.1912   -4.9498 H           1 MFU       0.0255
     19 H7         14.8673    1.2568   -3.9210 H           1 MFU       0.0255
     20 H8         14.6859    1.4149   -5.6846 H           1 MFU       0.0255
     21 H9          8.3258    1.5841   -5.1616 H           1 MFU       0.2101
     22 H10         9.8633    3.2296   -3.2518 H           1 MFU       0.2100
     23 H11        12.1886    3.8484   -5.0948 H           1 MFU       0.2100
     24 H12        10.9862   -3.1174   -4.1413 H           1 MFU       0.0525
     25 H13        12.4195   -2.1375   -4.5023 H           1 MFU       0.0525
     26 H14        11.4480   -2.8526   -5.8252 H           1 MFU       0.0525
@<TRIPOS>BOND
     1     1     2   1
     2     1     7   1
     3     1    11   1
     4     2     3   1
     5     2     8   1
     6     3     4   1
     7     3     9   1
     8     4     5   1
     9     4    10   1
    10     5     6   1
    11     5    11   1
    12     7    12   1
    13     1    13   1
    14     2    14   1
    15     3    15   1
    16     4    16   1
    17     5    17   1
    18     6    18   1
    19     6    19   1
    20     6    20   1
    21     8    21   1
    22     9    22   1
    23    10    23   1
    24    12    24   1
    25    12    25   1
    26    12    26   1
@<TRIPOS>SUBSTRUCTURE
     1  MFU      1

