@<TRIPOS>MOLECULE
2jdm_ligand_025
    26    26
SMALL
GAST_HUCK
****
This file was generated by PARSER (from files_GN.cpp)

@<TRIPOS>ATOM
      1 C1         16.0588   10.4564   -4.3360 C.3         1 MFU       0.1875
      2 C2         15.0909    9.4091   -3.7213 C.3         1 MFU       0.1341
      3 C3         14.0860   10.0920   -2.7607 C.3         1 MFU       0.1140
      4 C4         14.8020   10.9944   -1.7135 C.3         1 MFU       0.1095
      5 C5         15.8968   11.9088   -2.3529 C.3         1 MFU       0.0873
      6 C6         15.3712   13.2236   -2.9883 C.3         1 MFU      -0.0361
      7 O1         17.0977    9.8511   -5.1320 O.3         1 MFU      -0.3520
      8 O2         15.8480    8.4085   -3.0409 O.3         1 MFU      -0.3841
      9 O3         13.1384   10.8362   -3.5286 O.3         1 MFU      -0.3864
     10 O4         13.8583   11.7699   -0.9735 O.3         1 MFU      -0.3866
     11 O5         16.7307   11.1726   -3.2782 O.3         1 MFU      -0.3431
     12 CM         16.6810    9.2981   -6.3914 C.3         1 MFU       0.0395
     13 H1         15.5015   11.1672   -4.9563 H           1 MFU       0.0937
     14 H2         14.5280    8.9166   -4.5193 H           1 MFU       0.0671
     15 H3         13.5277    9.3138   -2.2315 H           1 MFU       0.0648
     16 H4         15.2972   10.3373   -0.9919 H           1 MFU       0.0646
     17 H5         16.5673   12.2183   -1.5455 H           1 MFU       0.0621
     18 H6         16.2015   13.7816   -3.4255 H           1 MFU       0.0255
     19 H7         14.9024   13.8532   -2.2293 H           1 MFU       0.0255
     20 H8         14.6391   13.0245   -3.7682 H           1 MFU       0.0255
     21 H9         15.2035    7.7096   -2.7981 H           1 MFU       0.2101
     22 H10        12.2849   10.7172   -3.0622 H           1 MFU       0.2100
     23 H11        13.0788   11.1918   -0.8447 H           1 MFU       0.2100
     24 H12        17.5635    8.9118   -6.8991 H           1 MFU       0.0525
     25 H13        16.2184   10.0540   -7.0281 H           1 MFU       0.0525
     26 H14        15.9839    8.4709   -6.2568 H           1 MFU       0.0525
@<TRIPOS>BOND
     1     1     2   1
     2     1     7   1
     3     1    11   1
     4     2     3   1
     5     2     8   1
     6     3     4   1
     7     3     9   1
     8     4     5   1
     9     4    10   1
    10     5     6   1
    11     5    11   1
    12     7    12   1
    13     1    13   1
    14     2    14   1
    15     3    15   1
    16     4    16   1
    17     5    17   1
    18     6    18   1
    19     6    19   1
    20     6    20   1
    21     8    21   1
    22     9    22   1
    23    10    23   1
    24    12    24   1
    25    12    25   1
    26    12    26   1
@<TRIPOS>SUBSTRUCTURE
     1  MFU      1

