@<TRIPOS>MOLECULE
2jdm_ligand_028
    26    26
SMALL
GAST_HUCK
****
This file was generated by PARSER (from files_GN.cpp)

@<TRIPOS>ATOM
      1 C1         14.1253   10.0329   -4.1952 C.3         1 MFU       0.1875
      2 C2         13.9429   10.8016   -2.8545 C.3         1 MFU       0.1341
      3 C3         14.0523    9.8352   -1.6419 C.3         1 MFU       0.1140
      4 C4         15.3504    8.9867   -1.7105 C.3         1 MFU       0.1095
      5 C5         15.4381    8.2737   -3.0923 C.3         1 MFU       0.0873
      6 C6         16.7448    7.4661   -3.2739 C.3         1 MFU      -0.0361
      7 O1         13.0037    9.1592   -4.4804 O.3         1 MFU      -0.3520
      8 O2         12.6975   11.4972   -2.8149 O.3         1 MFU      -0.3841
      9 O3         13.9997   10.5582   -0.4141 O.3         1 MFU      -0.3864
     10 O4         16.4987    9.8079   -1.4781 O.3         1 MFU      -0.3866
     11 O5         15.3336    9.2373   -4.1664 O.3         1 MFU      -0.3431
     12 CM         12.0829    9.5943   -5.4983 C.3         1 MFU       0.0395
     13 H1         14.2779   10.7671   -4.9954 H           1 MFU       0.0937
     14 H2         14.7298   11.5549   -2.7779 H           1 MFU       0.0671
     15 H3         13.1977    9.1550   -1.6572 H           1 MFU       0.0648
     16 H4         15.3197    8.2347   -0.9161 H           1 MFU       0.0646
     17 H5         14.6142    7.5583   -3.1717 H           1 MFU       0.0621
     18 H6         16.7189    6.9294   -4.2235 H           1 MFU       0.0255
     19 H7         16.8558    6.7390   -2.4681 H           1 MFU       0.0255
     20 H8         17.6123    8.1275   -3.2758 H           1 MFU       0.0255
     21 H9         12.0273   10.8463   -3.1093 H           1 MFU       0.2101
     22 H10        13.0660   10.8480   -0.3450 H           1 MFU       0.2100
     23 H11        16.5949   10.3645   -2.2786 H           1 MFU       0.2100
     24 H12        11.2540    8.8865   -5.5462 H           1 MFU       0.0525
     25 H13        12.5784    9.6123   -6.4721 H           1 MFU       0.0525
     26 H14        11.6782   10.5856   -5.2806 H           1 MFU       0.0525
@<TRIPOS>BOND
     1     1     2   1
     2     1     7   1
     3     1    11   1
     4     2     3   1
     5     2     8   1
     6     3     4   1
     7     3     9   1
     8     4     5   1
     9     4    10   1
    10     5     6   1
    11     5    11   1
    12     7    12   1
    13     1    13   1
    14     2    14   1
    15     3    15   1
    16     4    16   1
    17     5    17   1
    18     6    18   1
    19     6    19   1
    20     6    20   1
    21     8    21   1
    22     9    22   1
    23    10    23   1
    24    12    24   1
    25    12    25   1
    26    12    26   1
@<TRIPOS>SUBSTRUCTURE
     1  MFU      1

