@<TRIPOS>MOLECULE
2jdm_ligand_008
    26    26
SMALL
GAST_HUCK
****
This file was generated by PARSER (from files_GN.cpp)

@<TRIPOS>ATOM
      1 C1         12.5274    5.6765   -4.3410 C.3         1 MFU       0.1875
      2 C2         10.9908    5.5854   -4.0973 C.3         1 MFU       0.1341
      3 C3         10.2921    6.9181   -4.4828 C.3         1 MFU       0.1140
      4 C4         10.6785    7.3498   -5.9243 C.3         1 MFU       0.1095
      5 C5         12.2283    7.4028   -6.0649 C.3         1 MFU       0.0873
      6 C6         12.6823    7.7467   -7.5040 C.3         1 MFU      -0.0361
      7 O1         13.1812    6.5529   -3.3910 O.3         1 MFU      -0.3520
      8 O2         10.6844    5.2462   -2.7468 O.3         1 MFU      -0.3841
      9 O3          8.8699    6.8335   -4.3704 O.3         1 MFU      -0.3864
     10 O4         10.1018    6.4688   -6.8930 O.3         1 MFU      -0.3866
     11 O5         12.8139    6.1381   -5.6851 O.3         1 MFU      -0.3431
     12 CM         13.7989    5.9333   -2.2498 C.3         1 MFU       0.0395
     13 H1         12.9404    4.6610   -4.2931 H           1 MFU       0.0937
     14 H2         10.5915    4.7822   -4.7202 H           1 MFU       0.0671
     15 H3         10.6263    7.7036   -3.7967 H           1 MFU       0.0648
     16 H4         10.2725    8.3473   -6.1134 H           1 MFU       0.0646
     17 H5         12.6191    8.1897   -5.4095 H           1 MFU       0.0621
     18 H6         13.7683    7.8368   -7.5408 H           1 MFU       0.0255
     19 H7         12.2466    8.6953   -7.8178 H           1 MFU       0.0255
     20 H8         12.3760    6.9706   -8.2070 H           1 MFU       0.0255
     21 H9         11.0016    6.0033   -2.2117 H           1 MFU       0.2101
     22 H10         8.6609    7.0134   -3.4262 H           1 MFU       0.2100
     23 H11        10.5884    5.6223   -6.8067 H           1 MFU       0.2100
     24 H12        14.1894    6.7120   -1.5912 H           1 MFU       0.0525
     25 H13        14.6285    5.3093   -2.5766 H           1 MFU       0.0525
     26 H14        13.0876    5.3315   -1.6830 H           1 MFU       0.0525
@<TRIPOS>BOND
     1     1     2   1
     2     1     7   1
     3     1    11   1
     4     2     3   1
     5     2     8   1
     6     3     4   1
     7     3     9   1
     8     4     5   1
     9     4    10   1
    10     5     6   1
    11     5    11   1
    12     7    12   1
    13     1    13   1
    14     2    14   1
    15     3    15   1
    16     4    16   1
    17     5    17   1
    18     6    18   1
    19     6    19   1
    20     6    20   1
    21     8    21   1
    22     9    22   1
    23    10    23   1
    24    12    24   1
    25    12    25   1
    26    12    26   1
@<TRIPOS>SUBSTRUCTURE
     1  MFU      1

