@<TRIPOS>MOLECULE
2jdm_ligand_017
    26    26
SMALL
GAST_HUCK
****
This file was generated by PARSER (from files_GN.cpp)

@<TRIPOS>ATOM
      1 C1         11.9953    4.4963   -5.8741 C.3         1 MFU       0.1875
      2 C2         10.5984    4.2713   -6.5093 C.3         1 MFU       0.1341
      3 C3          9.6330    5.4337   -6.1524 C.3         1 MFU       0.1140
      4 C4          9.6144    5.6957   -4.6176 C.3         1 MFU       0.1095
      5 C5         11.0424    5.7966   -4.0008 C.3         1 MFU       0.0873
      6 C6         11.7563    7.1622   -4.1805 C.3         1 MFU      -0.0361
      7 O1         12.8000    3.3328   -6.1503 O.3         1 MFU      -0.3520
      8 O2         10.0571    3.0277   -6.0590 O.3         1 MFU      -0.3841
      9 O3          9.9942    6.5897   -6.9075 O.3         1 MFU      -0.3864
     10 O4          8.8049    6.8344   -4.3337 O.3         1 MFU      -0.3866
     11 O5         11.8700    4.6949   -4.4463 O.3         1 MFU      -0.3431
     12 CM         14.1691    3.4162   -5.7276 C.3         1 MFU       0.0395
     13 H1         12.4674    5.3678   -6.3436 H           1 MFU       0.0937
     14 H2         10.7007    4.2108   -7.5964 H           1 MFU       0.0671
     15 H3          8.6266    5.1586   -6.4743 H           1 MFU       0.0648
     16 H4          9.1190    4.8374   -4.1495 H           1 MFU       0.0646
     17 H5         10.9350    5.6581   -2.9206 H           1 MFU       0.0621
     18 H6         12.7525    7.1188   -3.7355 H           1 MFU       0.0255
     19 H7         11.1944    7.9511   -3.6780 H           1 MFU       0.0255
     20 H8         11.8611    7.4266   -5.2313 H           1 MFU       0.0255
     21 H9          9.2095    2.9251   -6.5420 H           1 MFU       0.2101
     22 H10         9.1674    7.1112   -7.0031 H           1 MFU       0.2100
     23 H11         8.7428    6.9078   -3.3558 H           1 MFU       0.2100
     24 H12        14.6752    2.4944   -6.0136 H           1 MFU       0.0525
     25 H13        14.2357    3.5249   -4.6471 H           1 MFU       0.0525
     26 H14        14.6797    4.2536   -6.2157 H           1 MFU       0.0525
@<TRIPOS>BOND
     1     1     2   1
     2     1     7   1
     3     1    11   1
     4     2     3   1
     5     2     8   1
     6     3     4   1
     7     3     9   1
     8     4     5   1
     9     4    10   1
    10     5     6   1
    11     5    11   1
    12     7    12   1
    13     1    13   1
    14     2    14   1
    15     3    15   1
    16     4    16   1
    17     5    17   1
    18     6    18   1
    19     6    19   1
    20     6    20   1
    21     8    21   1
    22     9    22   1
    23    10    23   1
    24    12    24   1
    25    12    25   1
    26    12    26   1
@<TRIPOS>SUBSTRUCTURE
     1  MFU      1

