@<TRIPOS>MOLECULE
2jdu_ligand_005
    26    26
SMALL
GAST_HUCK
****
This file was generated by PARSER (from files_GN.cpp)

@<TRIPOS>ATOM
      1 C1        -39.3391   23.2535   12.4071 C.3         1 MFU       0.1875
      2 C2        -38.1600   23.4821   11.4161 C.3         1 MFU       0.1341
      3 C3        -37.6135   22.1191   10.9238 C.3         1 MFU       0.1140
      4 C4        -38.7494   21.2643   10.2956 C.3         1 MFU       0.1095
      5 C5        -39.9744   21.1871   11.2541 C.3         1 MFU       0.0873
      6 C6        -41.1979   20.5187   10.5888 C.3         1 MFU      -0.0361
      7 O1        -38.9968   22.5435   13.6218 O.3         1 MFU      -0.3520
      8 O2        -37.1146   24.2655   11.9876 O.3         1 MFU      -0.3841
      9 O3        -36.5596   22.3395    9.9912 O.3         1 MFU      -0.3864
     10 O4        -39.1226   21.8206    9.0334 O.3         1 MFU      -0.3866
     11 O5        -40.3683   22.5003   11.7304 O.3         1 MFU      -0.3431
     12 CM        -38.2708   23.2428   14.6438 C.3         1 MFU       0.0395
     13 H1        -39.7782   24.2291   12.6560 H           1 MFU       0.0937
     14 H2        -38.5432   24.0421   10.5547 H           1 MFU       0.0671
     15 H3        -37.1884   21.5779   11.7728 H           1 MFU       0.0648
     16 H4        -38.3680   20.2496   10.1273 H           1 MFU       0.0646
     17 H5        -39.7019   20.5649   12.1167 H           1 MFU       0.0621
     18 H6        -41.9884   20.3793   11.3267 H           1 MFU       0.0255
     19 H7        -40.9255   19.5390   10.1858 H           1 MFU       0.0255
     20 H8        -41.5858   21.1369    9.7790 H           1 MFU       0.0255
     21 H9        -37.5329   25.1232   12.2190 H           1 MFU       0.2101
     22 H10       -36.3155   21.4623    9.6184 H           1 MFU       0.2100
     23 H11       -38.9024   21.1209    8.3831 H           1 MFU       0.2100
     24 H12       -38.1868   22.5840   15.5122 H           1 MFU       0.0525
     25 H13       -38.7932   24.1519   14.9497 H           1 MFU       0.0525
     26 H14       -37.2613   23.4889   14.3172 H           1 MFU       0.0525
@<TRIPOS>BOND
     1     1     2   1
     2     1     7   1
     3     1    11   1
     4     2     3   1
     5     2     8   1
     6     3     4   1
     7     3     9   1
     8     4     5   1
     9     4    10   1
    10     5     6   1
    11     5    11   1
    12     7    12   1
    13     1    13   1
    14     2    14   1
    15     3    15   1
    16     4    16   1
    17     5    17   1
    18     6    18   1
    19     6    19   1
    20     6    20   1
    21     8    21   1
    22     9    22   1
    23    10    23   1
    24    12    24   1
    25    12    25   1
    26    12    26   1
@<TRIPOS>SUBSTRUCTURE
     1  MFU      1

