@<TRIPOS>MOLECULE
2jdu_ligand_010
    26    26
SMALL
GAST_HUCK
****
This file was generated by PARSER (from files_GN.cpp)

@<TRIPOS>ATOM
      1 C1        -38.9584   21.8237   10.7490 C.3         1 MFU       0.1875
      2 C2        -37.7038   22.6431   11.1457 C.3         1 MFU       0.1341
      3 C3        -38.0508   24.1473   11.3407 C.3         1 MFU       0.1140
      4 C4        -38.8176   24.6928   10.1009 C.3         1 MFU       0.1095
      5 C5        -40.0036   23.7744    9.6751 C.3         1 MFU       0.0873
      6 C6        -41.2999   23.9164   10.5139 C.3         1 MFU      -0.0361
      7 O1        -38.5314   20.4735   10.4841 O.3         1 MFU      -0.3520
      8 O2        -36.6923   22.5403   10.1422 O.3         1 MFU      -0.3841
      9 O3        -38.8009   24.3402   12.5422 O.3         1 MFU      -0.3864
     10 O4        -39.2333   26.0455   10.2773 O.3         1 MFU      -0.3866
     11 O5        -39.5852   22.3923    9.5763 O.3         1 MFU      -0.3431
     12 CM        -39.5542   19.4659   10.5248 C.3         1 MFU       0.0395
     13 H1        -39.6498   21.8418   11.5946 H           1 MFU       0.0937
     14 H2        -37.2911   22.2325   12.0736 H           1 MFU       0.0671
     15 H3        -37.1233   24.7200   11.4610 H           1 MFU       0.0648
     16 H4        -38.1193   24.7077    9.2629 H           1 MFU       0.0646
     17 H5        -40.2740   24.0726    8.6596 H           1 MFU       0.0621
     18 H6        -42.0542   23.2202   10.1383 H           1 MFU       0.0255
     19 H7        -41.6962   24.9306   10.4313 H           1 MFU       0.0255
     20 H8        -41.1271   23.6992   11.5674 H           1 MFU       0.0255
     21 H9        -36.6182   21.5993    9.8747 H           1 MFU       0.2101
     22 H10       -38.1911   24.0961   13.2754 H           1 MFU       0.2100
     23 H11       -38.4342   26.5779   10.0752 H           1 MFU       0.2100
     24 H12       -39.1048   18.5032   10.2803 H           1 MFU       0.0525
     25 H13       -40.3493   19.6704    9.8071 H           1 MFU       0.0525
     26 H14       -39.9750   19.3975   11.5315 H           1 MFU       0.0525
@<TRIPOS>BOND
     1     1     2   1
     2     1     7   1
     3     1    11   1
     4     2     3   1
     5     2     8   1
     6     3     4   1
     7     3     9   1
     8     4     5   1
     9     4    10   1
    10     5     6   1
    11     5    11   1
    12     7    12   1
    13     1    13   1
    14     2    14   1
    15     3    15   1
    16     4    16   1
    17     5    17   1
    18     6    18   1
    19     6    19   1
    20     6    20   1
    21     8    21   1
    22     9    22   1
    23    10    23   1
    24    12    24   1
    25    12    25   1
    26    12    26   1
@<TRIPOS>SUBSTRUCTURE
     1  MFU      1

