@<TRIPOS>MOLECULE
2jdu_ligand_012
    26    26
SMALL
GAST_HUCK
****
This file was generated by PARSER (from files_GN.cpp)

@<TRIPOS>ATOM
      1 C1        -41.5206   22.6351   10.7950 C.3         1 MFU       0.1875
      2 C2        -40.5831   21.4806   11.2535 C.3         1 MFU       0.1341
      3 C3        -39.6833   20.9912   10.0866 C.3         1 MFU       0.1140
      4 C4        -38.9817   22.1754    9.3576 C.3         1 MFU       0.1095
      5 C5        -40.0037   23.2938    8.9938 C.3         1 MFU       0.0873
      6 C6        -39.3228   24.5396    8.3851 C.3         1 MFU      -0.0361
      7 O1        -42.5514   22.1070    9.9261 O.3         1 MFU      -0.3520
      8 O2        -41.3549   20.3863   11.7661 O.3         1 MFU      -0.3841
      9 O3        -38.7129   20.0707   10.5879 O.3         1 MFU      -0.3864
     10 O4        -37.8981   22.7029   10.1293 O.3         1 MFU      -0.3866
     11 O5        -40.7592   23.6891   10.1639 O.3         1 MFU      -0.3431
     12 CM        -43.6376   23.0027    9.6429 C.3         1 MFU       0.0395
     13 H1        -41.9788   23.0488   11.7000 H           1 MFU       0.0937
     14 H2        -39.9550   21.8504   12.0748 H           1 MFU       0.0671
     15 H3        -40.3131   20.4614    9.3657 H           1 MFU       0.0648
     16 H4        -38.5466   21.7944    8.4299 H           1 MFU       0.0646
     17 H5        -40.6886   22.9005    8.2415 H           1 MFU       0.0621
     18 H6        -40.0791   25.2467    8.0409 H           1 MFU       0.0255
     19 H7        -38.7030   24.2522    7.5373 H           1 MFU       0.0255
     20 H8        -38.6949   25.0389    9.1278 H           1 MFU       0.0255
     21 H9        -42.0487   20.2222   11.0863 H           1 MFU       0.2101
     22 H10       -38.4065   19.5810    9.7954 H           1 MFU       0.2100
     23 H11       -38.2484   22.7850   11.0569 H           1 MFU       0.2100
     24 H12       -44.3254   22.5067    8.9597 H           1 MFU       0.0525
     25 H13       -43.2872   23.9240    9.1738 H           1 MFU       0.0525
     26 H14       -44.1808   23.2476   10.5589 H           1 MFU       0.0525
@<TRIPOS>BOND
     1     1     2   1
     2     1     7   1
     3     1    11   1
     4     2     3   1
     5     2     8   1
     6     3     4   1
     7     3     9   1
     8     4     5   1
     9     4    10   1
    10     5     6   1
    11     5    11   1
    12     7    12   1
    13     1    13   1
    14     2    14   1
    15     3    15   1
    16     4    16   1
    17     5    17   1
    18     6    18   1
    19     6    19   1
    20     6    20   1
    21     8    21   1
    22     9    22   1
    23    10    23   1
    24    12    24   1
    25    12    25   1
    26    12    26   1
@<TRIPOS>SUBSTRUCTURE
     1  MFU      1

