@<TRIPOS>MOLECULE
2jdu_ligand_003
    26    26
SMALL
GAST_HUCK
****
This file was generated by PARSER (from files_GN.cpp)

@<TRIPOS>ATOM
      1 C1        -41.0260   20.7782   13.1846 C.3         1 MFU       0.1875
      2 C2        -39.5873   20.4618   13.6761 C.3         1 MFU       0.1341
      3 C3        -38.5413   20.9174   12.6230 C.3         1 MFU       0.1140
      4 C4        -38.8825   20.3700   11.2053 C.3         1 MFU       0.1095
      5 C5        -40.3829   20.5690   10.8175 C.3         1 MFU       0.0873
      6 C6        -40.7788   21.9780   10.2980 C.3         1 MFU      -0.0361
      7 O1        -42.0113   20.1916   14.0545 O.3         1 MFU      -0.3520
      8 O2        -39.4774   19.0525   13.8914 O.3         1 MFU      -0.3841
      9 O3        -38.4594   22.3423   12.6236 O.3         1 MFU      -0.3864
     10 O4        -38.0008   20.9414   10.2374 O.3         1 MFU      -0.3866
     11 O5        -41.2451   20.1534   11.9024 O.3         1 MFU      -0.3431
     12 CM        -42.5936   21.0595   15.0372 C.3         1 MFU       0.0395
     13 H1        -41.1740   21.8615   13.0940 H           1 MFU       0.0937
     14 H2        -39.4011   20.9775   14.6193 H           1 MFU       0.0671
     15 H3        -37.5558   20.5440   12.9158 H           1 MFU       0.0648
     16 H4        -38.6865   19.2927   11.2110 H           1 MFU       0.0646
     17 H5        -40.6005   19.8789    9.9975 H           1 MFU       0.0621
     18 H6        -41.8527   22.0072   10.1064 H           1 MFU       0.0255
     19 H7        -40.2579   22.2002    9.3698 H           1 MFU       0.0255
     20 H8        -40.5411   22.7567   11.0224 H           1 MFU       0.0255
     21 H9        -39.0810   18.9361   14.7800 H           1 MFU       0.2101
     22 H10       -37.6890   22.5654   12.0575 H           1 MFU       0.2100
     23 H11       -38.1785   20.4632    9.3967 H           1 MFU       0.2100
     24 H12       -43.1913   20.4461   15.7081 H           1 MFU       0.0525
     25 H13       -43.2462   21.7918   14.5586 H           1 MFU       0.0525
     26 H14       -41.8306   21.5779   15.6183 H           1 MFU       0.0525
@<TRIPOS>BOND
     1     1     2   1
     2     1     7   1
     3     1    11   1
     4     2     3   1
     5     2     8   1
     6     3     4   1
     7     3     9   1
     8     4     5   1
     9     4    10   1
    10     5     6   1
    11     5    11   1
    12     7    12   1
    13     1    13   1
    14     2    14   1
    15     3    15   1
    16     4    16   1
    17     5    17   1
    18     6    18   1
    19     6    19   1
    20     6    20   1
    21     8    21   1
    22     9    22   1
    23    10    23   1
    24    12    24   1
    25    12    25   1
    26    12    26   1
@<TRIPOS>SUBSTRUCTURE
     1  MFU      1

