@<TRIPOS>MOLECULE
2jdu_ligand_015
    26    26
SMALL
GAST_HUCK
****
This file was generated by PARSER (from files_GN.cpp)

@<TRIPOS>ATOM
      1 C1        -40.6465   23.3490   10.8587 C.3         1 MFU       0.1875
      2 C2        -41.7353   22.3237   10.4268 C.3         1 MFU       0.1341
      3 C3        -41.2875   20.8675   10.7374 C.3         1 MFU       0.1140
      4 C4        -39.8814   20.5902   10.1437 C.3         1 MFU       0.1095
      5 C5        -38.8332   21.7090   10.4596 C.3         1 MFU       0.0873
      6 C6        -38.1570   21.6144   11.8533 C.3         1 MFU      -0.0361
      7 O1        -40.9518   24.6938   10.4384 O.3         1 MFU      -0.3520
      8 O2        -41.9982   22.4485    9.0266 O.3         1 MFU      -0.3841
      9 O3        -41.3653   20.5762   12.1335 O.3         1 MFU      -0.3864
     10 O4        -39.4386   19.2889   10.5362 O.3         1 MFU      -0.3866
     11 O5        -39.3856   23.0239   10.2274 O.3         1 MFU      -0.3431
     12 CM        -42.0343   25.3560   11.1091 C.3         1 MFU       0.0395
     13 H1        -40.5165   23.3322   11.9440 H           1 MFU       0.0937
     14 H2        -42.6654   22.5227   10.9620 H           1 MFU       0.0671
     15 H3        -41.9922   20.1806   10.2613 H           1 MFU       0.0648
     16 H4        -40.0040   20.5722    9.0547 H           1 MFU       0.0646
     17 H5        -38.0253   21.5984    9.7298 H           1 MFU       0.0621
     18 H6        -37.4624   22.4490   11.9782 H           1 MFU       0.0255
     19 H7        -37.5967   20.6817   11.9445 H           1 MFU       0.0255
     20 H8        -38.8934   21.6595   12.6529 H           1 MFU       0.0255
     21 H9        -42.2815   23.3819    8.9015 H           1 MFU       0.2101
     22 H10       -40.9699   21.3370   12.6014 H           1 MFU       0.2100
     23 H11       -39.2348   18.8389    9.6910 H           1 MFU       0.2100
     24 H12       -42.0857   26.3836   10.7509 H           1 MFU       0.0525
     25 H13       -41.8742   25.3800   12.1853 H           1 MFU       0.0525
     26 H14       -42.9858   24.8735   10.8945 H           1 MFU       0.0525
@<TRIPOS>BOND
     1     1     2   1
     2     1     7   1
     3     1    11   1
     4     2     3   1
     5     2     8   1
     6     3     4   1
     7     3     9   1
     8     4     5   1
     9     4    10   1
    10     5     6   1
    11     5    11   1
    12     7    12   1
    13     1    13   1
    14     2    14   1
    15     3    15   1
    16     4    16   1
    17     5    17   1
    18     6    18   1
    19     6    19   1
    20     6    20   1
    21     8    21   1
    22     9    22   1
    23    10    23   1
    24    12    24   1
    25    12    25   1
    26    12    26   1
@<TRIPOS>SUBSTRUCTURE
     1  MFU      1

