@<TRIPOS>MOLECULE
2jdu_ligand_018
    26    26
SMALL
GAST_HUCK
****
This file was generated by PARSER (from files_GN.cpp)

@<TRIPOS>ATOM
      1 C1        -39.1105   24.9166    5.0036 C.3         1 MFU       0.1875
      2 C2        -40.2368   23.8524    5.1226 C.3         1 MFU       0.1341
      3 C3        -40.3249   23.2944    6.5699 C.3         1 MFU       0.1140
      4 C4        -40.4285   24.4445    7.6127 C.3         1 MFU       0.1095
      5 C5        -39.2712   25.4601    7.3895 C.3         1 MFU       0.0873
      6 C6        -39.3848   26.6800    8.3411 C.3         1 MFU      -0.0361
      7 O1        -37.8176   24.2710    5.0788 O.3         1 MFU      -0.3520
      8 O2        -40.0419   22.7900    4.1797 O.3         1 MFU      -0.3841
      9 O3        -41.4143   22.3848    6.6961 O.3         1 MFU      -0.3864
     10 O4        -41.6957   25.1029    7.5406 O.3         1 MFU      -0.3866
     11 O5        -39.2480   25.9336    6.0254 O.3         1 MFU      -0.3431
     12 CM        -36.7812   24.8329    4.2589 C.3         1 MFU       0.0395
     13 H1        -39.2499   25.4089    4.0329 H           1 MFU       0.0937
     14 H2        -41.1872   24.3326    4.8686 H           1 MFU       0.0671
     15 H3        -39.4188   22.7226    6.7778 H           1 MFU       0.0648
     16 H4        -40.3464   24.0138    8.6145 H           1 MFU       0.0646
     17 H5        -38.3205   24.9716    7.6119 H           1 MFU       0.0621
     18 H6        -38.5183   27.3349    8.2230 H           1 MFU       0.0255
     19 H7        -39.4268   26.3478    9.3839 H           1 MFU       0.0255
     20 H8        -40.2865   27.2613    8.1246 H           1 MFU       0.0255
     21 H9        -39.2858   22.2697    4.5187 H           1 MFU       0.2101
     22 H10       -42.1907   22.8471    6.3177 H           1 MFU       0.2100
     23 H11       -42.3372   24.4845    7.9471 H           1 MFU       0.2100
     24 H12       -35.8425   24.3269    4.4832 H           1 MFU       0.0525
     25 H13       -36.6555   25.9006    4.4465 H           1 MFU       0.0525
     26 H14       -37.0120   24.6708    3.2033 H           1 MFU       0.0525
@<TRIPOS>BOND
     1     1     2   1
     2     1     7   1
     3     1    11   1
     4     2     3   1
     5     2     8   1
     6     3     4   1
     7     3     9   1
     8     4     5   1
     9     4    10   1
    10     5     6   1
    11     5    11   1
    12     7    12   1
    13     1    13   1
    14     2    14   1
    15     3    15   1
    16     4    16   1
    17     5    17   1
    18     6    18   1
    19     6    19   1
    20     6    20   1
    21     8    21   1
    22     9    22   1
    23    10    23   1
    24    12    24   1
    25    12    25   1
    26    12    26   1
@<TRIPOS>SUBSTRUCTURE
     1  MFU      1

