@<TRIPOS>MOLECULE
2jdu_ligand_008
    26    26
SMALL
GAST_HUCK
****
This file was generated by PARSER (from files_GN.cpp)

@<TRIPOS>ATOM
      1 C1        -38.7201   22.2125   12.5811 C.3         1 MFU       0.1875
      2 C2        -37.8946   21.1073   11.8754 C.3         1 MFU       0.1341
      3 C3        -38.6635   20.5628   10.6437 C.3         1 MFU       0.1140
      4 C4        -40.0962   20.1110   11.0415 C.3         1 MFU       0.1095
      5 C5        -40.8581   21.1777   11.8956 C.3         1 MFU       0.0873
      6 C6        -41.5392   22.3126   11.0891 C.3         1 MFU      -0.0361
      7 O1        -37.9999   22.8202   13.6763 O.3         1 MFU      -0.3520
      8 O2        -37.6281   20.0316   12.7731 O.3         1 MFU      -0.3841
      9 O3        -38.6748   21.5330    9.6003 O.3         1 MFU      -0.3864
     10 O4        -40.8357   19.7455    9.8766 O.3         1 MFU      -0.3866
     11 O5        -40.0282   21.7148   12.9546 O.3         1 MFU      -0.3431
     12 CM        -38.0856   22.2288   14.9826 C.3         1 MFU       0.0395
     13 H1        -38.8551   23.0346   11.8724 H           1 MFU       0.0937
     14 H2        -36.9459   21.5215   11.5446 H           1 MFU       0.0671
     15 H3        -38.1220   19.6967   10.2500 H           1 MFU       0.0648
     16 H4        -40.0024   19.2029   11.6472 H           1 MFU       0.0646
     17 H5        -41.6665   20.6534   12.4096 H           1 MFU       0.0621
     18 H6        -42.0172   23.0152   11.7712 H           1 MFU       0.0255
     19 H7        -42.3075   21.9013   10.4326 H           1 MFU       0.0255
     20 H8        -40.8203   22.8581   10.4783 H           1 MFU       0.0255
     21 H9        -37.5065   19.2306   12.2139 H           1 MFU       0.2101
     22 H10       -38.6464   21.0078    8.7761 H           1 MFU       0.2100
     23 H11       -40.2066   19.2574    9.3013 H           1 MFU       0.2100
     24 H12       -37.4422   22.7939   15.6530 H           1 MFU       0.0525
     25 H13       -37.7559   21.1932   14.9835 H           1 MFU       0.0525
     26 H14       -39.1082   22.2831   15.3608 H           1 MFU       0.0525
@<TRIPOS>BOND
     1     1     2   1
     2     1     7   1
     3     1    11   1
     4     2     3   1
     5     2     8   1
     6     3     4   1
     7     3     9   1
     8     4     5   1
     9     4    10   1
    10     5     6   1
    11     5    11   1
    12     7    12   1
    13     1    13   1
    14     2    14   1
    15     3    15   1
    16     4    16   1
    17     5    17   1
    18     6    18   1
    19     6    19   1
    20     6    20   1
    21     8    21   1
    22     9    22   1
    23    10    23   1
    24    12    24   1
    25    12    25   1
    26    12    26   1
@<TRIPOS>SUBSTRUCTURE
     1  MFU      1

