@<TRIPOS>MOLECULE
2jdu_ligand_004
    26    26
SMALL
GAST_HUCK
****
This file was generated by PARSER (from files_GN.cpp)

@<TRIPOS>ATOM
      1 C1        -40.4471   20.7761   11.5761 C.3         1 MFU       0.1875
      2 C2        -39.5057   19.6822   12.1500 C.3         1 MFU       0.1341
      3 C3        -39.6096   19.6057   13.6971 C.3         1 MFU       0.1140
      4 C4        -39.4887   21.0117   14.3504 C.3         1 MFU       0.1095
      5 C5        -40.3946   22.0826   13.6677 C.3         1 MFU       0.0873
      6 C6        -41.8843   22.0541   14.1078 C.3         1 MFU      -0.0361
      7 O1        -40.3695   20.8530   10.1391 O.3         1 MFU      -0.3520
      8 O2        -38.1498   19.9309   11.7964 O.3         1 MFU      -0.3841
      9 O3        -40.8191   18.9582   14.0749 O.3         1 MFU      -0.3864
     10 O4        -39.7541   20.9242   15.7511 O.3         1 MFU      -0.3866
     11 O5        -40.2518   22.0532   12.2289 O.3         1 MFU      -0.3431
     12 CM        -39.3535   21.6598    9.5137 C.3         1 MFU       0.0395
     13 H1        -41.4735   20.4565   11.7691 H           1 MFU       0.0937
     14 H2        -39.7838   18.7177   11.7181 H           1 MFU       0.0671
     15 H3        -38.7942   18.9759   14.0651 H           1 MFU       0.0648
     16 H4        -38.4506   21.3326   14.2451 H           1 MFU       0.0646
     17 H5        -40.0167   23.0614   13.9746 H           1 MFU       0.0621
     18 H6        -42.4503   22.8159   13.5677 H           1 MFU       0.0255
     19 H7        -41.9670   22.2647   15.1769 H           1 MFU       0.0255
     20 H8        -42.3429   21.0814   13.9145 H           1 MFU       0.0255
     21 H9        -37.7595   19.0407   11.6605 H           1 MFU       0.2101
     22 H10       -40.6202   18.5717   14.9588 H           1 MFU       0.2100
     23 H11       -39.5628   19.9930   16.0001 H           1 MFU       0.2100
     24 H12       -39.4706   21.5623    8.4366 H           1 MFU       0.0525
     25 H13       -38.3471   21.3429    9.7768 H           1 MFU       0.0525
     26 H14       -39.4814   22.7104    9.7764 H           1 MFU       0.0525
@<TRIPOS>BOND
     1     1     2   1
     2     1     7   1
     3     1    11   1
     4     2     3   1
     5     2     8   1
     6     3     4   1
     7     3     9   1
     8     4     5   1
     9     4    10   1
    10     5     6   1
    11     5    11   1
    12     7    12   1
    13     1    13   1
    14     2    14   1
    15     3    15   1
    16     4    16   1
    17     5    17   1
    18     6    18   1
    19     6    19   1
    20     6    20   1
    21     8    21   1
    22     9    22   1
    23    10    23   1
    24    12    24   1
    25    12    25   1
    26    12    26   1
@<TRIPOS>SUBSTRUCTURE
     1  MFU      1

