@<TRIPOS>MOLECULE
2jdu_ligand_002
    26    26
SMALL
GAST_HUCK
****
This file was generated by PARSER (from files_GN.cpp)

@<TRIPOS>ATOM
      1 C1        -38.2678   20.9083   12.0785 C.3         1 MFU       0.1875
      2 C2        -38.4680   20.5895   10.5694 C.3         1 MFU       0.1341
      3 C3        -38.2664   21.8791    9.7232 C.3         1 MFU       0.1140
      4 C4        -39.1908   23.0185   10.2469 C.3         1 MFU       0.1095
      5 C5        -39.0920   23.2163   11.7957 C.3         1 MFU       0.0873
      6 C6        -37.8809   24.0602   12.2774 C.3         1 MFU      -0.0361
      7 O1        -38.3228   19.7707   12.9594 O.3         1 MFU      -0.3520
      8 O2        -39.7868   20.0769   10.3246 O.3         1 MFU      -0.3841
      9 O3        -36.9008   22.2891    9.7413 O.3         1 MFU      -0.3864
     10 O4        -38.9381   24.2384    9.5506 O.3         1 MFU      -0.3866
     11 O5        -39.1703   21.9492   12.5060 O.3         1 MFU      -0.3431
     12 CM        -39.5738   19.0893   13.1458 C.3         1 MFU       0.0395
     13 H1        -37.2467   21.2673   12.2016 H           1 MFU       0.0937
     14 H2        -37.7432   19.8232   10.2582 H           1 MFU       0.0671
     15 H3        -38.5339   21.6665    8.6842 H           1 MFU       0.0648
     16 H4        -40.2264   22.7399   10.0168 H           1 MFU       0.0646
     17 H5        -39.9801   23.7702   12.1039 H           1 MFU       0.0621
     18 H6        -37.8800   24.1153   13.3684 H           1 MFU       0.0255
     19 H7        -37.9490   25.0747   11.8810 H           1 MFU       0.0255
     20 H8        -36.9312   23.6274   11.9528 H           1 MFU       0.0255
     21 H9        -39.7173   19.6854    9.4180 H           1 MFU       0.2101
     22 H10       -36.3905   21.5297    9.3826 H           1 MFU       0.2100
     23 H11       -39.0720   24.0285    8.5995 H           1 MFU       0.2100
     24 H12       -39.4495   18.3847   13.9814 H           1 MFU       0.0525
     25 H13       -39.8354   18.5180   12.2504 H           1 MFU       0.0525
     26 H14       -40.3779   19.7878   13.3956 H           1 MFU       0.0525
@<TRIPOS>BOND
     1     1     2   1
     2     1     7   1
     3     1    11   1
     4     2     3   1
     5     2     8   1
     6     3     4   1
     7     3     9   1
     8     4     5   1
     9     4    10   1
    10     5     6   1
    11     5    11   1
    12     7    12   1
    13     1    13   1
    14     2    14   1
    15     3    15   1
    16     4    16   1
    17     5    17   1
    18     6    18   1
    19     6    19   1
    20     6    20   1
    21     8    21   1
    22     9    22   1
    23    10    23   1
    24    12    24   1
    25    12    25   1
    26    12    26   1
@<TRIPOS>SUBSTRUCTURE
     1  MFU      1

