@<TRIPOS>MOLECULE
2jdu_ligand_001
    26    26
SMALL
GAST_HUCK
****
This file was generated by PARSER (from files_GN.cpp)

@<TRIPOS>ATOM
      1 C1        -40.1722   20.9593   12.4036 C.3         1 MFU       0.1875
      2 C2        -39.6417   19.9059   11.3906 C.3         1 MFU       0.1341
      3 C3        -38.1982   20.2956   10.9739 C.3         1 MFU       0.1140
      4 C4        -38.1678   21.7355   10.3803 C.3         1 MFU       0.1095
      5 C5        -38.8730   22.7632   11.3202 C.3         1 MFU       0.0873
      6 C6        -38.0005   23.2906   12.4906 C.3         1 MFU      -0.0361
      7 O1        -41.5094   20.5967   12.8048 O.3         1 MFU      -0.3520
      8 O2        -40.4925   19.8470   10.2426 O.3         1 MFU      -0.3841
      9 O3        -37.3483   20.1674   12.1174 O.3         1 MFU      -0.3864
     10 O4        -36.8324   22.1387   10.0587 O.3         1 MFU      -0.3866
     11 O5        -40.1527   22.2735   11.7949 O.3         1 MFU      -0.3431
     12 CM        -42.0445   21.3785   13.8887 C.3         1 MFU       0.0395
     13 H1        -39.5281   20.9430   13.2917 H           1 MFU       0.0937
     14 H2        -39.6333   18.9154   11.8544 H           1 MFU       0.0671
     15 H3        -37.8410   19.5876   10.2194 H           1 MFU       0.0648
     16 H4        -38.7170   21.7130    9.4359 H           1 MFU       0.0646
     17 H5        -39.1051   23.6382   10.7069 H           1 MFU       0.0621
     18 H6        -38.5718   24.0116   13.0799 H           1 MFU       0.0255
     19 H7        -37.1090   23.7948   12.1039 H           1 MFU       0.0255
     20 H8        -37.6798   22.4860   13.1531 H           1 MFU       0.0255
     21 H9        -39.9807   19.3664    9.5533 H           1 MFU       0.2101
     22 H10       -36.5545   20.7073   11.9276 H           1 MFU       0.2100
     23 H11       -36.4702   21.4419    9.4695 H           1 MFU       0.2100
     24 H12       -43.0610   21.0467   14.0868 H           1 MFU       0.0525
     25 H13       -42.0664   22.4402   13.6472 H           1 MFU       0.0525
     26 H14       -41.4585   21.2225   14.8005 H           1 MFU       0.0525
@<TRIPOS>BOND
     1     1     2   1
     2     1     7   1
     3     1    11   1
     4     2     3   1
     5     2     8   1
     6     3     4   1
     7     3     9   1
     8     4     5   1
     9     4    10   1
    10     5     6   1
    11     5    11   1
    12     7    12   1
    13     1    13   1
    14     2    14   1
    15     3    15   1
    16     4    16   1
    17     5    17   1
    18     6    18   1
    19     6    19   1
    20     6    20   1
    21     8    21   1
    22     9    22   1
    23    10    23   1
    24    12    24   1
    25    12    25   1
    26    12    26   1
@<TRIPOS>SUBSTRUCTURE
     1  MFU      1

