@<TRIPOS>MOLECULE
2jdy_ligand_026
    27    27
SMALL
GAST_HUCK
****
This file was generated by PARSER (from files_GN.cpp)

@<TRIPOS>ATOM
      1 C1         -7.6693  -17.8196   -5.7061 C.3         1 MMA       0.1876
      2 C2         -6.4971  -18.8333   -5.6475 C.3         1 MMA       0.1341
      3 C3         -5.6531  -18.6068   -4.3642 C.3         1 MMA       0.1141
      4 C4         -6.5618  -18.6364   -3.0950 C.3         1 MMA       0.1119
      5 C5         -7.8522  -17.7712   -3.2496 C.3         1 MMA       0.1130
      6 C6         -7.6613  -16.2582   -2.9370 C.3         1 MMA       0.0730
      7 C7         -9.3784  -17.0687   -7.2577 C.3         1 MMA       0.0395
      8 O1         -8.4634  -18.1098   -6.8732 O.3         1 MMA      -0.3520
      9 O2         -5.6910  -18.7127   -6.8196 O.3         1 MMA      -0.3841
     10 O3         -4.9402  -17.3742   -4.4580 O.3         1 MMA      -0.3864
     11 O4         -6.9374  -19.9948   -2.8324 O.3         1 MMA      -0.3865
     12 O5         -8.4885  -17.9735   -4.5288 O.3         1 MMA      -0.3405
     13 O6         -7.7513  -16.0273   -1.5360 O.3         1 MMA      -0.3924
     14 H1         -7.2526  -16.8068   -5.7669 H           1 MMA       0.0937
     15 H2         -6.9067  -19.8513   -5.6284 H           1 MMA       0.0671
     16 H3         -4.9051  -19.3993   -4.2943 H           1 MMA       0.0648
     17 H4         -5.9820  -18.2967   -2.2251 H           1 MMA       0.0647
     18 H5         -8.5792  -18.1419   -2.5218 H           1 MMA       0.0647
     19 H6         -8.4547  -15.6807   -3.4227 H           1 MMA       0.0584
     20 H7         -6.7050  -15.8903   -3.2951 H           1 MMA       0.0584
     21 H8        -10.0029  -17.4402   -8.0711 H           1 MMA       0.0525
     22 H9         -8.8310  -16.1942   -7.6148 H           1 MMA       0.0525
     23 H10       -10.0301  -16.7801   -6.4281 H           1 MMA       0.0525
     24 H11        -6.2641  -19.0104   -7.5498 H           1 MMA       0.2101
     25 H12        -4.3945  -17.3256   -3.6448 H           1 MMA       0.2100
     26 H13        -6.0980  -20.4812   -2.7021 H           1 MMA       0.2100
     27 H14        -7.7073  -15.0542   -1.4286 H           1 MMA       0.2095
@<TRIPOS>BOND
     1     1     2   1
     2     1     8   1
     3     1    12   1
     4     2     3   1
     5     2     9   1
     6     3     4   1
     7     3    10   1
     8     4     5   1
     9     4    11   1
    10     5     6   1
    11     5    12   1
    12     6    13   1
    13     8     7   1
    14     1    14   1
    15     2    15   1
    16     3    16   1
    17     4    17   1
    18     5    18   1
    19     6    19   1
    20     6    20   1
    21     7    21   1
    22     7    22   1
    23     7    23   1
    24     9    24   1
    25    10    25   1
    26    11    26   1
    27    13    27   1
@<TRIPOS>SUBSTRUCTURE
     1  MMA      1

