@<TRIPOS>MOLECULE
2jdy_ligand_013
    27    27
SMALL
GAST_HUCK
****
This file was generated by PARSER (from files_GN.cpp)

@<TRIPOS>ATOM
      1 C1         -6.3098  -18.7045   -4.3910 C.3         1 MMA       0.1876
      2 C2         -5.2810  -18.6652   -5.5567 C.3         1 MMA       0.1341
      3 C3         -4.8437  -17.2054   -5.8646 C.3         1 MMA       0.1141
      4 C4         -4.3870  -16.4763   -4.5691 C.3         1 MMA       0.1119
      5 C5         -5.4121  -16.6252   -3.4044 C.3         1 MMA       0.1130
      6 C6         -6.6309  -15.6651   -3.4613 C.3         1 MMA       0.0730
      7 C7         -5.8190  -20.8659   -3.2935 C.3         1 MMA       0.0395
      8 O1         -6.7219  -20.0509   -4.0637 O.3         1 MMA      -0.3520
      9 O2         -5.8151  -19.2983   -6.7210 O.3         1 MMA      -0.3841
     10 O3         -5.8969  -16.4914   -6.5176 O.3         1 MMA      -0.3864
     11 O4         -3.1330  -17.0289   -4.1472 O.3         1 MMA      -0.3865
     12 O5         -5.8169  -18.0024   -3.2244 O.3         1 MMA      -0.3405
     13 O6         -7.4456  -15.8356   -2.2988 O.3         1 MMA      -0.3924
     14 H1         -7.2250  -18.2114   -4.7273 H           1 MMA       0.0937
     15 H2         -4.3937  -19.2270   -5.2646 H           1 MMA       0.0671
     16 H3         -4.0060  -17.2408   -6.5637 H           1 MMA       0.0648
     17 H4         -4.2169  -15.4151   -4.7891 H           1 MMA       0.0647
     18 H5         -4.8769  -16.3606   -2.4897 H           1 MMA       0.0647
     19 H6         -7.2496  -15.8527   -4.3400 H           1 MMA       0.0584
     20 H7         -6.2772  -14.6338   -3.5119 H           1 MMA       0.0584
     21 H8         -6.2701  -21.8501   -3.1667 H           1 MMA       0.0525
     22 H9         -5.6522  -20.4414   -2.3005 H           1 MMA       0.0525
     23 H10        -4.8582  -21.0026   -3.7940 H           1 MMA       0.0525
     24 H11        -6.6439  -18.8183   -6.9293 H           1 MMA       0.2101
     25 H12        -5.6632  -15.5390   -6.4577 H           1 MMA       0.2100
     26 H13        -2.4824  -16.8030   -4.8482 H           1 MMA       0.2100
     27 H14        -7.4826  -14.9589   -1.8577 H           1 MMA       0.2095
@<TRIPOS>BOND
     1     1     2   1
     2     1     8   1
     3     1    12   1
     4     2     3   1
     5     2     9   1
     6     3     4   1
     7     3    10   1
     8     4     5   1
     9     4    11   1
    10     5     6   1
    11     5    12   1
    12     6    13   1
    13     8     7   1
    14     1    14   1
    15     2    15   1
    16     3    16   1
    17     4    17   1
    18     5    18   1
    19     6    19   1
    20     6    20   1
    21     7    21   1
    22     7    22   1
    23     7    23   1
    24     9    24   1
    25    10    25   1
    26    11    26   1
    27    13    27   1
@<TRIPOS>SUBSTRUCTURE
     1  MMA      1

