@<TRIPOS>MOLECULE
2jdy_ligand_003
    27    27
SMALL
GAST_HUCK
****
This file was generated by PARSER (from files_GN.cpp)

@<TRIPOS>ATOM
      1 C1         -6.6125  -18.4677   -4.5585 C.3         1 MMA       0.1876
      2 C2         -5.6713  -18.0332   -3.4043 C.3         1 MMA       0.1341
      3 C3         -5.6083  -16.4901   -3.2757 C.3         1 MMA       0.1141
      4 C4         -7.0271  -15.8601   -3.2008 C.3         1 MMA       0.1119
      5 C5         -8.0066  -16.4371   -4.2731 C.3         1 MMA       0.1130
      6 C6         -7.9984  -15.7348   -5.6617 C.3         1 MMA       0.0730
      7 C7         -7.5030  -20.4755   -5.6031 C.3         1 MMA       0.0395
      8 O1         -6.7211  -19.9018   -4.5412 O.3         1 MMA      -0.3520
      9 O2         -4.3592  -18.5803   -3.5925 O.3         1 MMA      -0.3841
     10 O3         -4.8713  -15.9188   -4.3585 O.3         1 MMA      -0.3864
     11 O4         -7.5750  -16.0870   -1.8978 O.3         1 MMA      -0.3865
     12 O5         -7.9148  -17.8805   -4.3769 O.3         1 MMA      -0.3405
     13 O6         -6.8564  -15.9914   -6.4680 O.3         1 MMA      -0.3924
     14 H1         -6.1740  -18.1581   -5.5093 H           1 MMA       0.0937
     15 H2         -6.0560  -18.4438   -2.4687 H           1 MMA       0.0671
     16 H3         -5.0553  -16.2451   -2.3705 H           1 MMA       0.0648
     17 H4         -6.9475  -14.7778   -3.3288 H           1 MMA       0.0647
     18 H5         -9.0206  -16.2585   -3.8893 H           1 MMA       0.0647
     19 H6         -8.1029  -14.6594   -5.5329 H           1 MMA       0.0584
     20 H7         -8.8565  -16.0845   -6.2278 H           1 MMA       0.0584
     21 H8         -7.4758  -21.5611   -5.5039 H           1 MMA       0.0525
     22 H9         -7.0917  -20.2085   -6.5784 H           1 MMA       0.0525
     23 H10        -8.5459  -20.1549   -5.5441 H           1 MMA       0.0525
     24 H11        -4.0255  -18.1855   -4.4224 H           1 MMA       0.2101
     25 H12        -4.5867  -15.0297   -4.0278 H           1 MMA       0.2100
     26 H13        -7.5844  -15.2020   -1.4549 H           1 MMA       0.2100
     27 H14        -6.3368  -15.1455   -6.4944 H           1 MMA       0.2095
@<TRIPOS>BOND
     1     1     2   1
     2     1     8   1
     3     1    12   1
     4     2     3   1
     5     2     9   1
     6     3     4   1
     7     3    10   1
     8     4     5   1
     9     4    11   1
    10     5     6   1
    11     5    12   1
    12     6    13   1
    13     8     7   1
    14     1    14   1
    15     2    15   1
    16     3    16   1
    17     4    17   1
    18     5    18   1
    19     6    19   1
    20     6    20   1
    21     7    21   1
    22     7    22   1
    23     7    23   1
    24     9    24   1
    25    10    25   1
    26    11    26   1
    27    13    27   1
@<TRIPOS>SUBSTRUCTURE
     1  MMA      1

