@<TRIPOS>MOLECULE
2jdy_ligand_014
    27    27
SMALL
GAST_HUCK
****
This file was generated by PARSER (from files_GN.cpp)

@<TRIPOS>ATOM
      1 C1         -8.4405  -16.1615   -3.9103 C.3         1 MMA       0.1876
      2 C2         -7.3808  -16.6047   -2.8597 C.3         1 MMA       0.1341
      3 C3         -7.2243  -18.1514   -2.8729 C.3         1 MMA       0.1141
      4 C4         -8.5986  -18.8518   -2.6888 C.3         1 MMA       0.1119
      5 C5         -9.6054  -18.3202   -3.7516 C.3         1 MMA       0.1130
      6 C6        -11.0397  -18.8773   -3.5743 C.3         1 MMA       0.0730
      7 C7         -7.1653  -15.3399   -5.8418 C.3         1 MMA       0.0395
      8 O1         -7.9970  -16.3646   -5.2707 O.3         1 MMA      -0.3520
      9 O2         -7.7919  -16.1722   -1.5636 O.3         1 MMA      -0.3841
     10 O3         -6.3119  -18.5576   -1.8571 O.3         1 MMA      -0.3864
     11 O4         -8.4508  -20.2702   -2.8051 O.3         1 MMA      -0.3865
     12 O5         -9.6789  -16.8774   -3.7129 O.3         1 MMA      -0.3405
     13 O6        -11.7478  -18.2249   -2.5215 O.3         1 MMA      -0.3924
     14 H1         -8.6878  -15.1019   -3.7481 H           1 MMA       0.0937
     15 H2         -6.4132  -16.1457   -3.0753 H           1 MMA       0.0671
     16 H3         -6.7947  -18.4447   -3.8352 H           1 MMA       0.0648
     17 H4         -8.9851  -18.6364   -1.6899 H           1 MMA       0.0647
     18 H5         -9.2587  -18.6337   -4.7469 H           1 MMA       0.0647
     19 H6        -11.0116  -19.9504   -3.3734 H           1 MMA       0.0584
     20 H7        -11.5988  -18.7241   -4.4989 H           1 MMA       0.0584
     21 H8         -6.8525  -15.6535   -6.8365 H           1 MMA       0.0525
     22 H9         -6.2713  -15.1832   -5.2412 H           1 MMA       0.0525
     23 H10        -7.7141  -14.4060   -5.9459 H           1 MMA       0.0525
     24 H11        -7.5829  -15.2167   -1.5096 H           1 MMA       0.2101
     25 H12        -6.0538  -19.4767   -2.0851 H           1 MMA       0.2100
     26 H13        -8.0102  -20.5548   -1.9774 H           1 MMA       0.2100
     27 H14       -11.2845  -18.4653   -1.6925 H           1 MMA       0.2095
@<TRIPOS>BOND
     1     1     2   1
     2     1     8   1
     3     1    12   1
     4     2     3   1
     5     2     9   1
     6     3     4   1
     7     3    10   1
     8     4     5   1
     9     4    11   1
    10     5     6   1
    11     5    12   1
    12     6    13   1
    13     8     7   1
    14     1    14   1
    15     2    15   1
    16     3    16   1
    17     4    17   1
    18     5    18   1
    19     6    19   1
    20     6    20   1
    21     7    21   1
    22     7    22   1
    23     7    23   1
    24     9    24   1
    25    10    25   1
    26    11    26   1
    27    13    27   1
@<TRIPOS>SUBSTRUCTURE
     1  MMA      1

