@<TRIPOS>MOLECULE
2jdy_ligand_018
    27    27
SMALL
GAST_HUCK
****
This file was generated by PARSER (from files_GN.cpp)

@<TRIPOS>ATOM
      1 C1         -5.5502  -18.2124   -3.5527 C.3         1 MMA       0.1876
      2 C2         -5.7900  -18.7690   -4.9864 C.3         1 MMA       0.1341
      3 C3         -7.1210  -18.2120   -5.5862 C.3         1 MMA       0.1141
      4 C4         -7.1740  -16.6575   -5.4762 C.3         1 MMA       0.1119
      5 C5         -6.8385  -16.1592   -4.0260 C.3         1 MMA       0.1130
      6 C6         -8.0342  -16.2748   -3.0302 C.3         1 MMA       0.0730
      7 C7         -3.0772  -18.0977   -3.4124 C.3         1 MMA       0.0395
      8 O1         -4.3196  -18.6905   -2.9754 O.3         1 MMA      -0.3520
      9 O2         -5.8047  -20.1957   -4.9473 O.3         1 MMA      -0.3841
     10 O3         -8.2425  -18.8287   -4.9557 O.3         1 MMA      -0.3864
     11 O4         -6.2552  -16.1350   -6.4488 O.3         1 MMA      -0.3865
     12 O5         -5.6241  -16.7693   -3.5191 O.3         1 MMA      -0.3405
     13 O6         -7.6611  -15.9637   -1.6863 O.3         1 MMA      -0.3924
     14 H1         -6.3362  -18.6085   -2.9034 H           1 MMA       0.0937
     15 H2         -4.9645  -18.4553   -5.6380 H           1 MMA       0.0671
     16 H3         -7.1673  -18.4954   -6.6441 H           1 MMA       0.0648
     17 H4         -8.1665  -16.3058   -5.7610 H           1 MMA       0.0647
     18 H5         -6.6094  -15.0852   -4.0964 H           1 MMA       0.0647
     19 H6         -8.4291  -17.2993   -3.0144 H           1 MMA       0.0584
     20 H7         -8.8412  -15.6073   -3.3416 H           1 MMA       0.0584
     21 H8         -2.2617  -18.5785   -2.8675 H           1 MMA       0.0525
     22 H9         -3.0499  -17.0271   -3.1911 H           1 MMA       0.0525
     23 H10        -2.9076  -18.2555   -4.4811 H           1 MMA       0.0525
     24 H11        -5.9047  -20.4781   -5.8831 H           1 MMA       0.2101
     25 H12        -9.0264  -18.4535   -5.4019 H           1 MMA       0.2100
     26 H13        -6.2801  -15.1558   -6.3680 H           1 MMA       0.2100
     27 H14        -7.5343  -14.9838   -1.6585 H           1 MMA       0.2095
@<TRIPOS>BOND
     1     1     2   1
     2     1     8   1
     3     1    12   1
     4     2     3   1
     5     2     9   1
     6     3     4   1
     7     3    10   1
     8     4     5   1
     9     4    11   1
    10     5     6   1
    11     5    12   1
    12     6    13   1
    13     8     7   1
    14     1    14   1
    15     2    15   1
    16     3    16   1
    17     4    17   1
    18     5    18   1
    19     6    19   1
    20     6    20   1
    21     7    21   1
    22     7    22   1
    23     7    23   1
    24     9    24   1
    25    10    25   1
    26    11    26   1
    27    13    27   1
@<TRIPOS>SUBSTRUCTURE
     1  MMA      1

