@<TRIPOS>MOLECULE
2jdy_ligand_040
    27    27
SMALL
GAST_HUCK
****
This file was generated by PARSER (from files_GN.cpp)

@<TRIPOS>ATOM
      1 C1         -6.2227  -18.4104   -3.7599 C.3         1 MMA       0.1876
      2 C2         -6.6116  -18.9520   -5.1596 C.3         1 MMA       0.1341
      3 C3         -5.6045  -18.4815   -6.2461 C.3         1 MMA       0.1141
      4 C4         -4.1300  -18.7239   -5.8180 C.3         1 MMA       0.1119
      5 C5         -3.8258  -18.3079   -4.3416 C.3         1 MMA       0.1130
      6 C6         -3.4230  -16.8218   -4.1164 C.3         1 MMA       0.0730
      7 C7         -7.9114  -18.1507   -2.0201 C.3         1 MMA       0.0395
      8 O1         -7.0590  -19.0338   -2.7635 O.3         1 MMA      -0.3520
      9 O2         -7.9408  -18.5486   -5.4914 O.3         1 MMA      -0.3841
     10 O3         -5.8149  -17.1175   -6.6014 O.3         1 MMA      -0.3864
     11 O4         -3.8322  -20.1144   -5.9716 O.3         1 MMA      -0.3865
     12 O5         -4.8607  -18.7546   -3.4314 O.3         1 MMA      -0.3405
     13 O6         -4.4675  -15.8825   -4.3108 O.3         1 MMA      -0.3924
     14 H1         -6.3352  -17.3263   -3.7562 H           1 MMA       0.0937
     15 H2         -6.6050  -20.0441   -5.1237 H           1 MMA       0.0671
     16 H3         -5.7976  -19.0503   -7.1575 H           1 MMA       0.0648
     17 H4         -3.4654  -18.1887   -6.4976 H           1 MMA       0.0647
     18 H5         -2.9304  -18.8699   -4.0419 H           1 MMA       0.0647
     19 H6         -2.6094  -16.5537   -4.7912 H           1 MMA       0.0584
     20 H7         -3.0686  -16.7102   -3.0891 H           1 MMA       0.0584
     21 H8         -8.5106  -18.7423   -1.3304 H           1 MMA       0.0525
     22 H9         -8.5849  -17.6008   -2.6834 H           1 MMA       0.0525
     23 H10        -7.3119  -17.4416   -1.4445 H           1 MMA       0.0525
     24 H11        -7.9281  -17.5682   -5.4708 H           1 MMA       0.2101
     25 H12        -5.8158  -16.6133   -5.7648 H           1 MMA       0.2100
     26 H13        -4.4051  -20.5808   -5.3276 H           1 MMA       0.2100
     27 H14        -4.1025  -15.0139   -4.0377 H           1 MMA       0.2095
@<TRIPOS>BOND
     1     1     2   1
     2     1     8   1
     3     1    12   1
     4     2     3   1
     5     2     9   1
     6     3     4   1
     7     3    10   1
     8     4     5   1
     9     4    11   1
    10     5     6   1
    11     5    12   1
    12     6    13   1
    13     8     7   1
    14     1    14   1
    15     2    15   1
    16     3    16   1
    17     4    17   1
    18     5    18   1
    19     6    19   1
    20     6    20   1
    21     7    21   1
    22     7    22   1
    23     7    23   1
    24     9    24   1
    25    10    25   1
    26    11    26   1
    27    13    27   1
@<TRIPOS>SUBSTRUCTURE
     1  MMA      1

