@<TRIPOS>MOLECULE
2jdy_ligand_010
    27    27
SMALL
GAST_HUCK
****
This file was generated by PARSER (from files_GN.cpp)

@<TRIPOS>ATOM
      1 C1         -6.8296  -17.8929   -2.8069 C.3         1 MMA       0.1876
      2 C2         -8.1202  -17.2331   -3.3629 C.3         1 MMA       0.1341
      3 C3         -8.0010  -16.9051   -4.8840 C.3         1 MMA       0.1141
      4 C4         -6.6764  -16.1541   -5.2032 C.3         1 MMA       0.1119
      5 C5         -5.4746  -16.9631   -4.6217 C.3         1 MMA       0.1130
      6 C6         -4.0971  -16.2987   -4.8608 C.3         1 MMA       0.0730
      7 C7         -5.6716  -20.0231   -2.6517 C.3         1 MMA       0.0395
      8 O1         -6.7524  -19.2705   -3.2326 O.3         1 MMA      -0.3520
      9 O2         -8.4039  -16.0634   -2.5952 O.3         1 MMA      -0.3841
     10 O3         -9.1282  -16.1417   -5.3153 O.3         1 MMA      -0.3864
     11 O4         -6.5475  -15.9907   -6.6174 O.3         1 MMA      -0.3865
     12 O5         -5.6577  -17.1322   -3.1953 O.3         1 MMA      -0.3405
     13 O6         -3.0836  -17.0778   -4.2276 O.3         1 MMA      -0.3924
     14 H1         -6.8865  -17.8714   -1.7145 H           1 MMA       0.0937
     15 H2         -8.9596  -17.9192   -3.2124 H           1 MMA       0.0671
     16 H3         -8.0059  -17.8500   -5.4365 H           1 MMA       0.0648
     17 H4         -6.7057  -15.1548   -4.7528 H           1 MMA       0.0647
     18 H5         -5.4393  -17.9424   -5.1133 H           1 MMA       0.0647
     19 H6         -4.0857  -15.2861   -4.4455 H           1 MMA       0.0584
     20 H7         -3.8838  -16.2462   -5.9335 H           1 MMA       0.0584
     21 H8         -5.6856  -21.0262   -3.0742 H           1 MMA       0.0525
     22 H9         -5.7931  -20.1057   -1.5681 H           1 MMA       0.0525
     23 H10        -4.7039  -19.5639   -2.8775 H           1 MMA       0.0525
     24 H11        -8.1301  -15.2946   -3.1599 H           1 MMA       0.2101
     25 H12        -9.1206  -16.1975   -6.2925 H           1 MMA       0.2100
     26 H13        -6.3523  -15.0283   -6.7336 H           1 MMA       0.2100
     27 H14        -2.2264  -16.7593   -4.5957 H           1 MMA       0.2095
@<TRIPOS>BOND
     1     1     2   1
     2     1     8   1
     3     1    12   1
     4     2     3   1
     5     2     9   1
     6     3     4   1
     7     3    10   1
     8     4     5   1
     9     4    11   1
    10     5     6   1
    11     5    12   1
    12     6    13   1
    13     8     7   1
    14     1    14   1
    15     2    15   1
    16     3    16   1
    17     4    17   1
    18     5    18   1
    19     6    19   1
    20     6    20   1
    21     7    21   1
    22     7    22   1
    23     7    23   1
    24     9    24   1
    25    10    25   1
    26    11    26   1
    27    13    27   1
@<TRIPOS>SUBSTRUCTURE
     1  MMA      1

