@<TRIPOS>MOLECULE
2jdy_ligand_015
    27    27
SMALL
GAST_HUCK
****
This file was generated by PARSER (from files_GN.cpp)

@<TRIPOS>ATOM
      1 C1         -8.7519  -17.8569   -4.1938 C.3         1 MMA       0.1876
      2 C2         -8.2523  -16.3891   -4.2055 C.3         1 MMA       0.1341
      3 C3         -7.1578  -16.1566   -3.1214 C.3         1 MMA       0.1141
      4 C4         -6.0535  -17.2525   -3.1948 C.3         1 MMA       0.1119
      5 C5         -6.6358  -18.6943   -3.2576 C.3         1 MMA       0.1130
      6 C6         -7.1224  -19.2676   -1.8916 C.3         1 MMA       0.0730
      7 C7         -9.3587  -17.9494   -6.5987 C.3         1 MMA       0.0395
      8 O1         -9.7178  -18.1606   -5.2272 O.3         1 MMA      -0.3520
      9 O2         -9.3611  -15.5182   -4.0138 O.3         1 MMA      -0.3841
     10 O3         -7.7244  -16.0892   -1.8040 O.3         1 MMA      -0.3864
     11 O4         -5.2489  -17.0260   -4.3543 O.3         1 MMA      -0.3865
     12 O5         -7.6535  -18.7940   -4.2732 O.3         1 MMA      -0.3405
     13 O6         -6.1026  -20.0277   -1.2451 O.3         1 MMA      -0.3924
     14 H1         -9.2861  -18.0271   -3.2547 H           1 MMA       0.0937
     15 H2         -7.8174  -16.1605   -5.1751 H           1 MMA       0.0671
     16 H3         -6.6864  -15.1810   -3.3015 H           1 MMA       0.0648
     17 H4         -5.3921  -17.1597   -2.3283 H           1 MMA       0.0647
     18 H5         -5.8354  -19.3608   -3.5958 H           1 MMA       0.0647
     19 H6         -7.9846  -19.9183   -2.0481 H           1 MMA       0.0584
     20 H7         -7.4246  -18.4741   -1.2031 H           1 MMA       0.0584
     21 H8        -10.1033  -18.4439   -7.2212 H           1 MMA       0.0525
     22 H9         -8.3766  -18.3585   -6.8402 H           1 MMA       0.0525
     23 H10        -9.3756  -16.8829   -6.8434 H           1 MMA       0.0525
     24 H11        -8.9595  -14.6301   -3.9152 H           1 MMA       0.2101
     25 H12        -7.5537  -15.1719   -1.4877 H           1 MMA       0.2100
     26 H13        -4.7753  -16.1825   -4.1854 H           1 MMA       0.2100
     27 H14        -5.9924  -20.8246   -1.8136 H           1 MMA       0.2095
@<TRIPOS>BOND
     1     1     2   1
     2     1     8   1
     3     1    12   1
     4     2     3   1
     5     2     9   1
     6     3     4   1
     7     3    10   1
     8     4     5   1
     9     4    11   1
    10     5     6   1
    11     5    12   1
    12     6    13   1
    13     8     7   1
    14     1    14   1
    15     2    15   1
    16     3    16   1
    17     4    17   1
    18     5    18   1
    19     6    19   1
    20     6    20   1
    21     7    21   1
    22     7    22   1
    23     7    23   1
    24     9    24   1
    25    10    25   1
    26    11    26   1
    27    13    27   1
@<TRIPOS>SUBSTRUCTURE
     1  MMA      1

