@<TRIPOS>MOLECULE
2jdy_ligand_002
    27    27
SMALL
GAST_HUCK
****
This file was generated by PARSER (from files_GN.cpp)

@<TRIPOS>ATOM
      1 C1        -10.4052  -16.9071   -5.8682 C.3         1 MMA       0.1876
      2 C2        -10.3126  -17.7302   -4.5480 C.3         1 MMA       0.1341
      3 C3         -9.4886  -16.9535   -3.4755 C.3         1 MMA       0.1141
      4 C4         -8.1163  -16.4903   -4.0135 C.3         1 MMA       0.1119
      5 C5         -8.3323  -15.7211   -5.3649 C.3         1 MMA       0.1130
      6 C6         -7.0196  -15.2512   -6.0361 C.3         1 MMA       0.0730
      7 C7        -12.3176  -15.5481   -5.0547 C.3         1 MMA       0.0395
      8 O1        -11.1662  -15.6830   -5.9086 O.3         1 MMA      -0.3520
      9 O2         -9.7326  -18.9964   -4.8325 O.3         1 MMA      -0.3841
     10 O3         -9.3162  -17.7330   -2.2951 O.3         1 MMA      -0.3864
     11 O4         -7.4619  -15.6523   -3.0645 O.3         1 MMA      -0.3865
     12 O5         -9.0762  -16.5451   -6.2896 O.3         1 MMA      -0.3405
     13 O6         -6.2076  -16.3246   -6.4929 O.3         1 MMA      -0.3924
     14 H1        -10.8169  -17.5372   -6.6504 H           1 MMA       0.0937
     15 H2        -11.3104  -17.9408   -4.1794 H           1 MMA       0.0671
     16 H3        -10.0449  -16.0716   -3.1736 H           1 MMA       0.0648
     17 H4         -7.4987  -17.3652   -4.1926 H           1 MMA       0.0647
     18 H5         -8.9071  -14.8140   -5.1566 H           1 MMA       0.0647
     19 H6         -6.4534  -14.6177   -5.3579 H           1 MMA       0.0584
     20 H7         -7.2881  -14.6525   -6.9077 H           1 MMA       0.0584
     21 H8        -12.9832  -14.7844   -5.4761 H           1 MMA       0.0525
     22 H9        -11.9910  -15.1835   -4.0582 H           1 MMA       0.0525
     23 H10       -12.9029  -16.4837   -4.9295 H           1 MMA       0.0525
     24 H11        -8.8700  -18.8111   -5.2757 H           1 MMA       0.2101
     25 H12        -9.1726  -18.6690   -2.5746 H           1 MMA       0.2100
     26 H13        -7.8013  -14.7400   -3.2175 H           1 MMA       0.2100
     27 H14        -5.9304  -16.8091   -5.6796 H           1 MMA       0.2095
@<TRIPOS>BOND
     1     1     2   1
     2     1     8   1
     3     1    12   1
     4     2     3   1
     5     2     9   1
     6     3     4   1
     7     3    10   1
     8     4     5   1
     9     4    11   1
    10     5     6   1
    11     5    12   1
    12     6    13   1
    13     8     7   1
    14     1    14   1
    15     2    15   1
    16     3    16   1
    17     4    17   1
    18     5    18   1
    19     6    19   1
    20     6    20   1
    21     7    21   1
    22     7    22   1
    23     7    23   1
    24     9    24   1
    25    10    25   1
    26    11    26   1
    27    13    27   1
@<TRIPOS>SUBSTRUCTURE
     1  MMA      1

