@<TRIPOS>MOLECULE
2jdy_ligand_024
    27    27
SMALL
GAST_HUCK
****
This file was generated by PARSER (from files_GN.cpp)

@<TRIPOS>ATOM
      1 C1         -8.2469  -16.1495   -3.5458 C.3         1 MMA       0.1876
      2 C2         -7.2390  -15.8757   -4.6975 C.3         1 MMA       0.1341
      3 C3         -6.8519  -17.2096   -5.3811 C.3         1 MMA       0.1141
      4 C4         -6.3304  -18.2477   -4.3495 C.3         1 MMA       0.1119
      5 C5         -7.3018  -18.3736   -3.1325 C.3         1 MMA       0.1130
      6 C6         -6.6994  -19.2420   -1.9947 C.3         1 MMA       0.0730
      7 C7        -10.3095  -15.9651   -4.9110 C.3         1 MMA       0.0395
      8 O1         -9.5311  -16.6835   -3.9400 O.3         1 MMA      -0.3520
      9 O2         -6.0774  -15.2386   -4.1649 O.3         1 MMA      -0.3841
     10 O3         -5.8929  -16.9507   -6.4073 O.3         1 MMA      -0.3864
     11 O4         -6.1423  -19.5081   -4.9910 O.3         1 MMA      -0.3865
     12 O5         -7.6405  -17.0661   -2.6030 O.3         1 MMA      -0.3405
     13 O6         -6.8309  -20.6336   -2.2748 O.3         1 MMA      -0.3924
     14 H1         -8.4192  -15.2106   -3.0117 H           1 MMA       0.0937
     15 H2         -7.6757  -15.1983   -5.4395 H           1 MMA       0.0671
     16 H3         -7.7390  -17.6183   -5.8718 H           1 MMA       0.0648
     17 H4         -5.3521  -17.9124   -3.9921 H           1 MMA       0.0647
     18 H5         -8.2231  -18.8642   -3.4577 H           1 MMA       0.0647
     19 H6         -7.2155  -19.0368   -1.0536 H           1 MMA       0.0584
     20 H7         -5.6404  -19.0195   -1.8595 H           1 MMA       0.0584
     21 H8        -11.3198  -16.3675   -4.8977 H           1 MMA       0.0525
     22 H9         -9.8989  -16.1150   -5.9123 H           1 MMA       0.0525
     23 H10       -10.3547  -14.8942   -4.6897 H           1 MMA       0.0525
     24 H11        -6.3465  -14.3061   -4.0296 H           1 MMA       0.2101
     25 H12        -5.0309  -16.8614   -5.9443 H           1 MMA       0.2100
     26 H13        -7.0334  -19.7863   -5.2915 H           1 MMA       0.2100
     27 H14        -7.7970  -20.8145   -2.2314 H           1 MMA       0.2095
@<TRIPOS>BOND
     1     1     2   1
     2     1     8   1
     3     1    12   1
     4     2     3   1
     5     2     9   1
     6     3     4   1
     7     3    10   1
     8     4     5   1
     9     4    11   1
    10     5     6   1
    11     5    12   1
    12     6    13   1
    13     8     7   1
    14     1    14   1
    15     2    15   1
    16     3    16   1
    17     4    17   1
    18     5    18   1
    19     6    19   1
    20     6    20   1
    21     7    21   1
    22     7    22   1
    23     7    23   1
    24     9    24   1
    25    10    25   1
    26    11    26   1
    27    13    27   1
@<TRIPOS>SUBSTRUCTURE
     1  MMA      1

