@<TRIPOS>MOLECULE
2jdy_ligand_039
    27    27
SMALL
GAST_HUCK
****
This file was generated by PARSER (from files_GN.cpp)

@<TRIPOS>ATOM
      1 C1          0.1487  -20.7295    0.5732 C.3         1 MMA       0.1876
      2 C2         -1.3557  -20.7760    0.1743 C.3         1 MMA       0.1341
      3 C3         -1.5773  -20.0651   -1.1888 C.3         1 MMA       0.1141
      4 C4         -0.9793  -18.6314   -1.1900 C.3         1 MMA       0.1119
      5 C5          0.5046  -18.6677   -0.7153 C.3         1 MMA       0.1130
      6 C6          1.1307  -17.2651   -0.5179 C.3         1 MMA       0.0730
      7 C7          0.9751  -22.9398   -0.1259 C.3         1 MMA       0.0395
      8 O1          1.0097  -21.5124   -0.2862 O.3         1 MMA      -0.3520
      9 O2         -2.1508  -20.1783    1.2000 O.3         1 MMA      -0.3841
     10 O3         -2.9676  -20.0351   -1.5132 O.3         1 MMA      -0.3864
     11 O4         -1.0994  -18.0807   -2.5018 O.3         1 MMA      -0.3865
     12 O5          0.6137  -19.3627    0.5505 O.3         1 MMA      -0.3405
     13 O6          1.0844  -16.4667   -1.6961 O.3         1 MMA      -0.3924
     14 H1          0.2535  -21.0691    1.6071 H           1 MMA       0.0937
     15 H2         -1.6861  -21.8133    0.0888 H           1 MMA       0.0671
     16 H3         -1.0824  -20.6538   -1.9669 H           1 MMA       0.0648
     17 H4         -1.5599  -18.0050   -0.5070 H           1 MMA       0.0647
     18 H5          1.1060  -19.1896   -1.4671 H           1 MMA       0.0647
     19 H6          2.1809  -17.3781   -0.2419 H           1 MMA       0.0584
     20 H7          0.6233  -16.7280    0.2844 H           1 MMA       0.0584
     21 H8          1.6986  -23.3754   -0.8150 H           1 MMA       0.0525
     22 H9         -0.0073  -23.3448   -0.3638 H           1 MMA       0.0525
     23 H10         1.2540  -23.2253    0.8902 H           1 MMA       0.0525
     24 H11        -1.7802  -19.2830    1.3413 H           1 MMA       0.2101
     25 H12        -3.3501  -19.3104   -0.9764 H           1 MMA       0.2100
     26 H13        -1.1635  -17.1129   -2.3626 H           1 MMA       0.2100
     27 H14         1.0692  -17.1036   -2.4401 H           1 MMA       0.2095
@<TRIPOS>BOND
     1     1     2   1
     2     1     8   1
     3     1    12   1
     4     2     3   1
     5     2     9   1
     6     3     4   1
     7     3    10   1
     8     4     5   1
     9     4    11   1
    10     5     6   1
    11     5    12   1
    12     6    13   1
    13     8     7   1
    14     1    14   1
    15     2    15   1
    16     3    16   1
    17     4    17   1
    18     5    18   1
    19     6    19   1
    20     6    20   1
    21     7    21   1
    22     7    22   1
    23     7    23   1
    24     9    24   1
    25    10    25   1
    26    11    26   1
    27    13    27   1
@<TRIPOS>SUBSTRUCTURE
     1  MMA      1

