@<TRIPOS>MOLECULE
2jdy_ligand_038
    27    27
SMALL
GAST_HUCK
****
This file was generated by PARSER (from files_GN.cpp)

@<TRIPOS>ATOM
      1 C1         -9.7549  -16.9662   -4.9993 C.3         1 MMA       0.1876
      2 C2         -9.5194  -16.3462   -3.5914 C.3         1 MMA       0.1341
      3 C3         -8.0783  -16.6401   -3.0775 C.3         1 MMA       0.1141
      4 C4         -7.7570  -18.1566   -3.1868 C.3         1 MMA       0.1119
      5 C5         -8.0430  -18.6716   -4.6270 C.3         1 MMA       0.1130
      6 C6         -7.8445  -20.2054   -4.7485 C.3         1 MMA       0.0730
      7 C7         -9.2457  -16.5968   -7.3436 C.3         1 MMA       0.0395
      8 O1         -9.0144  -16.2087   -5.9816 O.3         1 MMA      -0.3520
      9 O2        -10.4671  -16.8718   -2.6581 O.3         1 MMA      -0.3841
     10 O3         -7.9014  -16.2303   -1.7180 O.3         1 MMA      -0.3864
     11 O4         -6.3945  -18.4076   -2.8429 O.3         1 MMA      -0.3865
     12 O5         -9.4051  -18.3671   -5.0062 O.3         1 MMA      -0.3405
     13 O6         -8.0169  -20.6389   -6.0954 O.3         1 MMA      -0.3924
     14 H1        -10.8245  -16.8897   -5.2209 H           1 MMA       0.0937
     15 H2         -9.6737  -15.2661   -3.6525 H           1 MMA       0.0671
     16 H3         -7.3631  -16.0854   -3.6896 H           1 MMA       0.0648
     17 H4         -8.3885  -18.7067   -2.4840 H           1 MMA       0.0647
     18 H5         -7.3488  -18.1915   -5.3264 H           1 MMA       0.0647
     19 H6         -8.5682  -20.7289   -4.1224 H           1 MMA       0.0584
     20 H7         -6.8407  -20.4916   -4.4275 H           1 MMA       0.0584
     21 H8         -8.6040  -15.9930   -7.9826 H           1 MMA       0.0525
     22 H9        -10.2818  -16.4220   -7.6363 H           1 MMA       0.0525
     23 H10        -8.9938  -17.6451   -7.4976 H           1 MMA       0.0525
     24 H11       -11.3475  -16.5940   -2.9818 H           1 MMA       0.2101
     25 H12        -7.8219  -15.2501   -1.7085 H           1 MMA       0.2100
     26 H13        -6.3361  -18.2442   -1.8761 H           1 MMA       0.2100
     27 H14        -7.2979  -20.2022   -6.6003 H           1 MMA       0.2095
@<TRIPOS>BOND
     1     1     2   1
     2     1     8   1
     3     1    12   1
     4     2     3   1
     5     2     9   1
     6     3     4   1
     7     3    10   1
     8     4     5   1
     9     4    11   1
    10     5     6   1
    11     5    12   1
    12     6    13   1
    13     8     7   1
    14     1    14   1
    15     2    15   1
    16     3    16   1
    17     4    17   1
    18     5    18   1
    19     6    19   1
    20     6    20   1
    21     7    21   1
    22     7    22   1
    23     7    23   1
    24     9    24   1
    25    10    25   1
    26    11    26   1
    27    13    27   1
@<TRIPOS>SUBSTRUCTURE
     1  MMA      1

