@<TRIPOS>MOLECULE
2jdy_ligand_012
    27    27
SMALL
GAST_HUCK
****
This file was generated by PARSER (from files_GN.cpp)

@<TRIPOS>ATOM
      1 C1         -6.1345  -17.3658   -5.4159 C.3         1 MMA       0.1876
      2 C2         -6.3547  -16.5206   -4.1313 C.3         1 MMA       0.1341
      3 C3         -7.8320  -16.6412   -3.6569 C.3         1 MMA       0.1141
      4 C4         -8.8374  -16.3534   -4.8092 C.3         1 MMA       0.1119
      5 C5         -8.4956  -17.2059   -6.0684 C.3         1 MMA       0.1130
      6 C6         -9.3762  -16.8783   -7.3048 C.3         1 MMA       0.0730
      7 C7         -6.1144  -19.6942   -6.1554 C.3         1 MMA       0.0395
      8 O1         -6.1582  -18.7636   -5.0602 O.3         1 MMA      -0.3520
      9 O2         -5.9867  -15.1589   -4.3624 O.3         1 MMA      -0.3841
     10 O3         -8.0862  -15.7740   -2.5529 O.3         1 MMA      -0.3864
     11 O4        -10.1572  -16.6439   -4.3527 O.3         1 MMA      -0.3865
     12 O5         -7.1075  -17.0265   -6.4331 O.3         1 MMA      -0.3405
     13 O6         -9.5945  -18.0298   -8.1182 O.3         1 MMA      -0.3924
     14 H1         -5.1437  -17.1234   -5.8077 H           1 MMA       0.0937
     15 H2         -5.6922  -16.8945   -3.3463 H           1 MMA       0.0671
     16 H3         -7.9916  -17.6599   -3.2916 H           1 MMA       0.0648
     17 H4         -8.8027  -15.2897   -5.0641 H           1 MMA       0.0647
     18 H5         -8.6661  -18.2577   -5.8229 H           1 MMA       0.0647
     19 H6         -8.8958  -16.1061   -7.9071 H           1 MMA       0.0584
     20 H7        -10.3540  -16.5110   -6.9938 H           1 MMA       0.0584
     21 H8         -6.0320  -20.6990   -5.7384 H           1 MMA       0.0525
     22 H9         -5.2496  -19.5149   -6.7995 H           1 MMA       0.0525
     23 H10        -7.0304  -19.6415   -6.7492 H           1 MMA       0.0525
     24 H11        -6.8226  -14.6536   -4.4592 H           1 MMA       0.2101
     25 H12        -7.9035  -14.8635   -2.8874 H           1 MMA       0.2100
     26 H13       -10.1542  -17.6085   -4.1599 H           1 MMA       0.2100
     27 H14        -8.7931  -18.1179   -8.6724 H           1 MMA       0.2095
@<TRIPOS>BOND
     1     1     2   1
     2     1     8   1
     3     1    12   1
     4     2     3   1
     5     2     9   1
     6     3     4   1
     7     3    10   1
     8     4     5   1
     9     4    11   1
    10     5     6   1
    11     5    12   1
    12     6    13   1
    13     8     7   1
    14     1    14   1
    15     2    15   1
    16     3    16   1
    17     4    17   1
    18     5    18   1
    19     6    19   1
    20     6    20   1
    21     7    21   1
    22     7    22   1
    23     7    23   1
    24     9    24   1
    25    10    25   1
    26    11    26   1
    27    13    27   1
@<TRIPOS>SUBSTRUCTURE
     1  MMA      1

