@<TRIPOS>MOLECULE
2jdy_ligand_007
    27    27
SMALL
GAST_HUCK
****
This file was generated by PARSER (from files_GN.cpp)

@<TRIPOS>ATOM
      1 C1         -5.3165  -16.1643   -5.1650 C.3         1 MMA       0.1876
      2 C2         -4.1412  -17.1584   -5.3635 C.3         1 MMA       0.1341
      3 C3         -4.6653  -18.6210   -5.3562 C.3         1 MMA       0.1141
      4 C4         -5.5181  -18.9062   -4.0880 C.3         1 MMA       0.1119
      5 C5         -6.6181  -17.8169   -3.8983 C.3         1 MMA       0.1130
      6 C6         -7.3541  -17.9620   -2.5412 C.3         1 MMA       0.0730
      7 C7         -7.3878  -15.4571   -6.2427 C.3         1 MMA       0.0395
      8 O1         -6.1345  -16.1517   -6.3556 O.3         1 MMA      -0.3520
      9 O2         -3.1812  -16.9598   -4.3253 O.3         1 MMA      -0.3841
     10 O3         -3.5681  -19.5308   -5.4362 O.3         1 MMA      -0.3864
     11 O4         -6.1031  -20.2061   -4.1757 O.3         1 MMA      -0.3865
     12 O5         -6.0384  -16.4931   -3.9548 O.3         1 MMA      -0.3405
     13 O6         -8.0502  -16.7711   -2.1767 O.3         1 MMA      -0.3924
     14 H1         -4.8923  -15.1640   -5.0337 H           1 MMA       0.0937
     15 H2         -3.6457  -16.9500   -6.3155 H           1 MMA       0.0671
     16 H3         -5.2842  -18.7745   -6.2459 H           1 MMA       0.0648
     17 H4         -4.8562  -18.9009   -3.2171 H           1 MMA       0.0647
     18 H5         -7.3634  -17.9198   -4.6933 H           1 MMA       0.0647
     19 H6         -6.6392  -18.1893   -1.7491 H           1 MMA       0.0584
     20 H7         -8.0799  -18.7760   -2.5942 H           1 MMA       0.0584
     21 H8         -7.8877  -15.4994   -7.2098 H           1 MMA       0.0525
     22 H9         -7.2340  -14.4103   -5.9814 H           1 MMA       0.0525
     23 H10        -8.0393  -15.9222   -5.5015 H           1 MMA       0.0525
     24 H11        -2.3053  -17.0540   -4.7564 H           1 MMA       0.2101
     25 H12        -3.9715  -20.4150   -5.5664 H           1 MMA       0.2100
     26 H13        -6.6945  -20.1755   -4.9576 H           1 MMA       0.2100
     27 H14        -7.4278  -16.0374   -2.3641 H           1 MMA       0.2095
@<TRIPOS>BOND
     1     1     2   1
     2     1     8   1
     3     1    12   1
     4     2     3   1
     5     2     9   1
     6     3     4   1
     7     3    10   1
     8     4     5   1
     9     4    11   1
    10     5     6   1
    11     5    12   1
    12     6    13   1
    13     8     7   1
    14     1    14   1
    15     2    15   1
    16     3    16   1
    17     4    17   1
    18     5    18   1
    19     6    19   1
    20     6    20   1
    21     7    21   1
    22     7    22   1
    23     7    23   1
    24     9    24   1
    25    10    25   1
    26    11    26   1
    27    13    27   1
@<TRIPOS>SUBSTRUCTURE
     1  MMA      1

