@<TRIPOS>MOLECULE
2jdy_ligand_030
    27    27
SMALL
GAST_HUCK
****
This file was generated by PARSER (from files_GN.cpp)

@<TRIPOS>ATOM
      1 C1         -7.8215  -19.0427   -5.0239 C.3         1 MMA       0.1876
      2 C2         -9.3616  -18.8935   -5.1476 C.3         1 MMA       0.1341
      3 C3         -9.7646  -17.3957   -5.2432 C.3         1 MMA       0.1141
      4 C4         -9.1149  -16.5541   -4.1020 C.3         1 MMA       0.1119
      5 C5         -7.5844  -16.8269   -4.0367 C.3         1 MMA       0.1130
      6 C6         -6.8876  -16.0821   -2.8644 C.3         1 MMA       0.0730
      7 C7         -5.7733  -18.6910   -6.3072 C.3         1 MMA       0.0395
      8 O1         -7.2173  -18.7319   -6.2954 O.3         1 MMA      -0.3520
      9 O2         -9.9892  -19.5037   -4.0290 O.3         1 MMA      -0.3841
     10 O3        -11.1899  -17.2400   -5.2248 O.3         1 MMA      -0.3864
     11 O4         -9.3723  -15.1560   -4.3067 O.3         1 MMA      -0.3865
     12 O5         -7.3159  -18.2384   -3.9365 O.3         1 MMA      -0.3405
     13 O6         -7.6648  -16.0643   -1.6592 O.3         1 MMA      -0.3924
     14 H1         -7.6104  -20.0878   -4.7914 H           1 MMA       0.0937
     15 H2         -9.7112  -19.4064   -6.0386 H           1 MMA       0.0671
     16 H3         -9.4171  -16.9967   -6.2053 H           1 MMA       0.0648
     17 H4         -9.5824  -16.8397   -3.1474 H           1 MMA       0.0647
     18 H5         -7.1166  -16.4611   -4.9490 H           1 MMA       0.0647
     19 H6         -6.6999  -15.0380   -3.1546 H           1 MMA       0.0584
     20 H7         -5.9178  -16.5469   -2.6438 H           1 MMA       0.0584
     21 H8         -5.4408  -18.5334   -7.3385 H           1 MMA       0.0525
     22 H9         -5.3436  -19.6353   -5.9502 H           1 MMA       0.0525
     23 H10        -5.4057  -17.8614   -5.6907 H           1 MMA       0.0525
     24 H11        -9.8346  -20.4659   -4.1277 H           1 MMA       0.2101
     25 H12       -11.4706  -17.6033   -4.3529 H           1 MMA       0.2100
     26 H13        -8.8844  -14.9303   -5.1221 H           1 MMA       0.2100
     27 H14        -7.6622  -15.1223   -1.3732 H           1 MMA       0.2095
@<TRIPOS>BOND
     1     1     2   1
     2     1     8   1
     3     1    12   1
     4     2     3   1
     5     2     9   1
     6     3     4   1
     7     3    10   1
     8     4     5   1
     9     4    11   1
    10     5     6   1
    11     5    12   1
    12     6    13   1
    13     8     7   1
    14     1    14   1
    15     2    15   1
    16     3    16   1
    17     4    17   1
    18     5    18   1
    19     6    19   1
    20     6    20   1
    21     7    21   1
    22     7    22   1
    23     7    23   1
    24     9    24   1
    25    10    25   1
    26    11    26   1
    27    13    27   1
@<TRIPOS>SUBSTRUCTURE
     1  MMA      1

