@<TRIPOS>MOLECULE
2jdy_ligand_042
    27    27
SMALL
GAST_HUCK
****
This file was generated by PARSER (from files_GN.cpp)

@<TRIPOS>ATOM
      1 C1         -0.8840  -20.7859   -3.6890 C.3         1 MMA       0.1876
      2 C2         -1.9036  -21.1859   -2.5897 C.3         1 MMA       0.1341
      3 C3         -2.3852  -19.9345   -1.8070 C.3         1 MMA       0.1141
      4 C4         -1.1827  -19.1167   -1.2667 C.3         1 MMA       0.1119
      5 C5         -0.1635  -18.8186   -2.4094 C.3         1 MMA       0.1130
      6 C6          1.1296  -18.1381   -1.8755 C.3         1 MMA       0.0730
      7 C7         -0.8072  -19.8928   -5.9520 C.3         1 MMA       0.0395
      8 O1         -1.5594  -20.0592   -4.7393 O.3         1 MMA      -0.3520
      9 O2         -1.3013  -22.1432   -1.7142 O.3         1 MMA      -0.3841
     10 O3         -3.2468  -20.3198   -0.7381 O.3         1 MMA      -0.3864
     11 O4         -1.6368  -17.9069   -0.6634 O.3         1 MMA      -0.3865
     12 O5          0.2039  -20.0363   -3.1006 O.3         1 MMA      -0.3405
     13 O6          1.0129  -16.7148   -1.9020 O.3         1 MMA      -0.3924
     14 H1         -0.4654  -21.7113   -4.0965 H           1 MMA       0.0937
     15 H2         -2.7675  -21.6685   -3.0541 H           1 MMA       0.0671
     16 H3         -2.9687  -19.3021   -2.4827 H           1 MMA       0.0648
     17 H4         -0.6917  -19.7014   -0.4852 H           1 MMA       0.0647
     18 H5         -0.6304  -18.1455   -3.1371 H           1 MMA       0.0647
     19 H6          1.9820  -18.4145   -2.4974 H           1 MMA       0.0584
     20 H7          1.3610  -18.4539   -0.8537 H           1 MMA       0.0584
     21 H8         -1.4110  -19.3180   -6.6548 H           1 MMA       0.0525
     22 H9         -0.5866  -20.8621   -6.4032 H           1 MMA       0.0525
     23 H10         0.1253  -19.3529   -5.7731 H           1 MMA       0.0525
     24 H11        -0.4553  -21.7403   -1.4233 H           1 MMA       0.2101
     25 H12        -3.5853  -19.4698   -0.3858 H           1 MMA       0.2100
     26 H13        -2.1098  -17.4233   -1.3740 H           1 MMA       0.2100
     27 H14         0.1970  -16.5090   -1.4085 H           1 MMA       0.2095
@<TRIPOS>BOND
     1     1     2   1
     2     1     8   1
     3     1    12   1
     4     2     3   1
     5     2     9   1
     6     3     4   1
     7     3    10   1
     8     4     5   1
     9     4    11   1
    10     5     6   1
    11     5    12   1
    12     6    13   1
    13     8     7   1
    14     1    14   1
    15     2    15   1
    16     3    16   1
    17     4    17   1
    18     5    18   1
    19     6    19   1
    20     6    20   1
    21     7    21   1
    22     7    22   1
    23     7    23   1
    24     9    24   1
    25    10    25   1
    26    11    26   1
    27    13    27   1
@<TRIPOS>SUBSTRUCTURE
     1  MMA      1

