@<TRIPOS>MOLECULE
2jdy_ligand_032
    27    27
SMALL
GAST_HUCK
****
This file was generated by PARSER (from files_GN.cpp)

@<TRIPOS>ATOM
      1 C1         -6.9548  -17.8001   -3.3608 C.3         1 MMA       0.1876
      2 C2         -7.8136  -16.5089   -3.4969 C.3         1 MMA       0.1341
      3 C3         -8.0948  -16.1720   -4.9898 C.3         1 MMA       0.1141
      4 C4         -8.5677  -17.4191   -5.8005 C.3         1 MMA       0.1119
      5 C5         -7.6934  -18.6836   -5.5373 C.3         1 MMA       0.1130
      6 C6         -6.3577  -18.7332   -6.3233 C.3         1 MMA       0.0730
      7 C7         -7.7920  -18.9894   -1.3617 C.3         1 MMA       0.0395
      8 O1         -6.7588  -18.1958   -1.9835 O.3         1 MMA      -0.3520
      9 O2         -7.1395  -15.4469   -2.8251 O.3         1 MMA      -0.3841
     10 O3         -6.9352  -15.5831   -5.5828 O.3         1 MMA      -0.3864
     11 O4         -9.9149  -17.7320   -5.4340 O.3         1 MMA      -0.3865
     12 O5         -7.4924  -18.8993   -4.1267 O.3         1 MMA      -0.3405
     13 O6         -6.5290  -19.3771   -7.5907 O.3         1 MMA      -0.3924
     14 H1         -5.9492  -17.5840   -3.7347 H           1 MMA       0.0937
     15 H2         -8.7734  -16.6638   -3.0025 H           1 MMA       0.0671
     16 H3         -8.8789  -15.4085   -5.0370 H           1 MMA       0.0648
     17 H4         -8.5719  -17.1803   -6.8708 H           1 MMA       0.0647
     18 H5         -8.2627  -19.5504   -5.8770 H           1 MMA       0.0647
     19 H6         -5.6139  -19.2994   -5.7487 H           1 MMA       0.0584
     20 H7         -5.9586  -17.7330   -6.4954 H           1 MMA       0.0584
     21 H8         -7.5245  -19.1608   -0.3195 H           1 MMA       0.0525
     22 H9         -7.8843  -19.9666   -1.8542 H           1 MMA       0.0525
     23 H10        -8.7598  -18.4811   -1.3821 H           1 MMA       0.0525
     24 H11        -7.6390  -14.6332   -3.0544 H           1 MMA       0.2101
     25 H12        -6.9867  -14.6293   -5.3240 H           1 MMA       0.2100
     26 H13       -10.4857  -17.3156   -6.1246 H           1 MMA       0.2100
     27 H14        -6.6575  -20.3325   -7.3669 H           1 MMA       0.2095
@<TRIPOS>BOND
     1     1     2   1
     2     1     8   1
     3     1    12   1
     4     2     3   1
     5     2     9   1
     6     3     4   1
     7     3    10   1
     8     4     5   1
     9     4    11   1
    10     5     6   1
    11     5    12   1
    12     6    13   1
    13     8     7   1
    14     1    14   1
    15     2    15   1
    16     3    16   1
    17     4    17   1
    18     5    18   1
    19     6    19   1
    20     6    20   1
    21     7    21   1
    22     7    22   1
    23     7    23   1
    24     9    24   1
    25    10    25   1
    26    11    26   1
    27    13    27   1
@<TRIPOS>SUBSTRUCTURE
     1  MMA      1

