@<TRIPOS>MOLECULE
2jdy_ligand_034
    27    27
SMALL
GAST_HUCK
****
This file was generated by PARSER (from files_GN.cpp)

@<TRIPOS>ATOM
      1 C1         -0.3469  -19.8467   -1.9123 C.3         1 MMA       0.1876
      2 C2          0.0565  -18.3464   -1.9810 C.3         1 MMA       0.1341
      3 C3          0.7129  -17.9173   -0.6394 C.3         1 MMA       0.1141
      4 C4         -0.2417  -18.2034    0.5517 C.3         1 MMA       0.1119
      5 C5         -0.7094  -19.6911    0.5259 C.3         1 MMA       0.1130
      6 C6         -1.8264  -19.9899    1.5670 C.3         1 MMA       0.0730
      7 C7          1.4628  -21.0723   -3.0198 C.3         1 MMA       0.0395
      8 O1          0.7723  -20.7546   -1.8002 O.3         1 MMA      -0.3520
      9 O2         -1.0910  -17.5511   -2.2920 O.3         1 MMA      -0.3841
     10 O3          1.1039  -16.5450   -0.6704 O.3         1 MMA      -0.3864
     11 O4          0.4294  -17.9166    1.7806 O.3         1 MMA      -0.3865
     12 O5         -1.2064  -20.0679   -0.7795 O.3         1 MMA      -0.3405
     13 O6         -3.1404  -19.9175    1.0126 O.3         1 MMA      -0.3924
     14 H1         -0.9475  -20.0974   -2.7936 H           1 MMA       0.0937
     15 H2          0.7722  -18.1962   -2.7892 H           1 MMA       0.0671
     16 H3          1.6314  -18.4965   -0.4981 H           1 MMA       0.0648
     17 H4         -1.1136  -17.5471    0.4854 H           1 MMA       0.0647
     18 H5          0.1521  -20.3195    0.7670 H           1 MMA       0.0647
     19 H6         -1.7689  -19.3048    2.4144 H           1 MMA       0.0584
     20 H7         -1.6970  -21.0003    1.9566 H           1 MMA       0.0584
     21 H8          2.2763  -21.7545   -2.7819 H           1 MMA       0.0525
     22 H9          1.8873  -20.1834   -3.4856 H           1 MMA       0.0525
     23 H10         0.7921  -21.5678   -3.7236 H           1 MMA       0.0525
     24 H11        -1.7461  -17.6976   -1.5718 H           1 MMA       0.2101
     25 H12         0.2884  -16.0451   -0.8657 H           1 MMA       0.2100
     26 H13         0.6458  -16.9612    1.7434 H           1 MMA       0.2100
     27 H14        -3.1683  -19.0931    0.4793 H           1 MMA       0.2095
@<TRIPOS>BOND
     1     1     2   1
     2     1     8   1
     3     1    12   1
     4     2     3   1
     5     2     9   1
     6     3     4   1
     7     3    10   1
     8     4     5   1
     9     4    11   1
    10     5     6   1
    11     5    12   1
    12     6    13   1
    13     8     7   1
    14     1    14   1
    15     2    15   1
    16     3    16   1
    17     4    17   1
    18     5    18   1
    19     6    19   1
    20     6    20   1
    21     7    21   1
    22     7    22   1
    23     7    23   1
    24     9    24   1
    25    10    25   1
    26    11    26   1
    27    13    27   1
@<TRIPOS>SUBSTRUCTURE
     1  MMA      1

