@<TRIPOS>MOLECULE
2jdy_ligand_000
    27    27
SMALL
GAST_HUCK
****
This file was generated by PARSER (from files_GN.cpp)

@<TRIPOS>ATOM
      1 C1         -6.7630  -17.9363   -3.4072 C.3         1 MMA       0.1876
      2 C2         -7.0546  -16.4401   -3.0942 C.3         1 MMA       0.1341
      3 C3         -5.9474  -15.5501   -3.7190 C.3         1 MMA       0.1141
      4 C4         -5.8212  -15.8100   -5.2482 C.3         1 MMA       0.1119
      5 C5         -5.6901  -17.3382   -5.5687 C.3         1 MMA       0.1130
      6 C6         -4.2519  -17.9115   -5.4083 C.3         1 MMA       0.0730
      7 C7         -7.8365  -19.2360   -1.6128 C.3         1 MMA       0.0395
      8 O1         -7.8540  -18.7799   -2.9807 O.3         1 MMA      -0.3520
      9 O2         -7.1478  -16.2042   -1.6827 O.3         1 MMA      -0.3841
     10 O3         -4.6812  -15.7810   -3.0975 O.3         1 MMA      -0.3864
     11 O4         -6.9901  -15.3025   -5.9008 O.3         1 MMA      -0.3865
     12 O5         -6.6684  -18.1258   -4.8386 O.3         1 MMA      -0.3405
     13 O6         -3.3860  -17.2336   -6.3173 O.3         1 MMA      -0.3924
     14 H1         -5.8179  -18.2581   -2.9532 H           1 MMA       0.0937
     15 H2         -8.0193  -16.1675   -3.5286 H           1 MMA       0.0671
     16 H3         -6.2047  -14.4968   -3.5546 H           1 MMA       0.0648
     17 H4         -4.9620  -15.2599   -5.6454 H           1 MMA       0.0647
     18 H5         -5.9434  -17.4760   -6.6189 H           1 MMA       0.0647
     19 H6         -4.2461  -18.9829   -5.6206 H           1 MMA       0.0584
     20 H7         -3.8934  -17.7642   -4.3991 H           1 MMA       0.0584
     21 H8         -8.7308  -19.8272   -1.4323 H           1 MMA       0.0525
     22 H9         -7.8175  -18.4136   -0.8962 H           1 MMA       0.0525
     23 H10        -6.9599  -19.8684   -1.4506 H           1 MMA       0.0525
     24 H11        -7.3609  -15.2597   -1.5677 H           1 MMA       0.2101
     25 H12        -4.8694  -15.9535   -2.1503 H           1 MMA       0.2100
     26 H13        -7.1098  -14.3838   -5.5781 H           1 MMA       0.2100
     27 H14        -2.4857  -17.2985   -5.9209 H           1 MMA       0.2095
@<TRIPOS>BOND
     1     1     2   1
     2     1     8   1
     3     1    12   1
     4     2     3   1
     5     2     9   1
     6     3     4   1
     7     3    10   1
     8     4     5   1
     9     4    11   1
    10     5     6   1
    11     5    12   1
    12     6    13   1
    13     8     7   1
    14     1    14   1
    15     2    15   1
    16     3    16   1
    17     4    17   1
    18     5    18   1
    19     6    19   1
    20     6    20   1
    21     7    21   1
    22     7    22   1
    23     7    23   1
    24     9    24   1
    25    10    25   1
    26    11    26   1
    27    13    27   1
@<TRIPOS>SUBSTRUCTURE
     1  MMA      1

