@<TRIPOS>MOLECULE
2jdy_ligand_022
    27    27
SMALL
GAST_HUCK
****
This file was generated by PARSER (from files_GN.cpp)

@<TRIPOS>ATOM
      1 C1         -5.8102  -18.1252   -3.1313 C.3         1 MMA       0.1876
      2 C2         -6.6092  -19.3744   -2.6844 C.3         1 MMA       0.1341
      3 C3         -8.0909  -19.0156   -2.3721 C.3         1 MMA       0.1141
      4 C4         -8.7384  -18.1869   -3.5221 C.3         1 MMA       0.1119
      5 C5         -7.8105  -17.0529   -4.0693 C.3         1 MMA       0.1130
      6 C6         -7.8290  -15.7014   -3.3002 C.3         1 MMA       0.0730
      7 C7         -3.5719  -17.4658   -3.8241 C.3         1 MMA       0.0395
      8 O1         -4.4749  -18.5356   -3.4913 O.3         1 MMA      -0.3520
      9 O2         -5.9785  -19.9720   -1.5522 O.3         1 MMA      -0.3841
     10 O3         -8.2067  -18.3230   -1.1319 O.3         1 MMA      -0.3864
     11 O4         -9.0497  -19.0682   -4.6037 O.3         1 MMA      -0.3865
     12 O5         -6.4612  -17.5282   -4.2723 O.3         1 MMA      -0.3405
     13 O6         -7.9052  -15.8312   -1.8869 O.3         1 MMA      -0.3924
     14 H1         -5.7555  -17.4162   -2.3000 H           1 MMA       0.0937
     15 H2         -6.5915  -20.1048   -3.4982 H           1 MMA       0.0671
     16 H3         -8.6539  -19.9415   -2.2418 H           1 MMA       0.0648
     17 H4         -9.6825  -17.7528   -3.1817 H           1 MMA       0.0647
     18 H5         -8.1625  -16.8055   -5.0758 H           1 MMA       0.0647
     19 H6         -8.6827  -15.1030   -3.6234 H           1 MMA       0.0584
     20 H7         -6.9179  -15.1471   -3.5299 H           1 MMA       0.0584
     21 H8         -2.6018  -17.8991   -4.0711 H           1 MMA       0.0525
     22 H9         -3.4394  -16.7859   -2.9787 H           1 MMA       0.0525
     23 H10        -3.9249  -16.9027   -4.6920 H           1 MMA       0.0525
     24 H11        -6.4890  -20.7896   -1.3696 H           1 MMA       0.2101
     25 H12        -7.7505  -18.8807   -0.4659 H           1 MMA       0.2100
     26 H13        -9.7349  -19.6784   -4.2571 H           1 MMA       0.2100
     27 H14        -7.6509  -14.9575   -1.5227 H           1 MMA       0.2095
@<TRIPOS>BOND
     1     1     2   1
     2     1     8   1
     3     1    12   1
     4     2     3   1
     5     2     9   1
     6     3     4   1
     7     3    10   1
     8     4     5   1
     9     4    11   1
    10     5     6   1
    11     5    12   1
    12     6    13   1
    13     8     7   1
    14     1    14   1
    15     2    15   1
    16     3    16   1
    17     4    17   1
    18     5    18   1
    19     6    19   1
    20     6    20   1
    21     7    21   1
    22     7    22   1
    23     7    23   1
    24     9    24   1
    25    10    25   1
    26    11    26   1
    27    13    27   1
@<TRIPOS>SUBSTRUCTURE
     1  MMA      1

