@<TRIPOS>MOLECULE
2jdy_ligand_021
    27    27
SMALL
GAST_HUCK
****
This file was generated by PARSER (from files_GN.cpp)

@<TRIPOS>ATOM
      1 C1         -4.6173  -19.8484   -2.8405 C.3         1 MMA       0.1876
      2 C2         -3.1222  -19.4641   -2.6845 C.3         1 MMA       0.1341
      3 C3         -2.8454  -18.0494   -3.2710 C.3         1 MMA       0.1141
      4 C4         -3.3897  -17.9226   -4.7234 C.3         1 MMA       0.1119
      5 C5         -4.8839  -18.3813   -4.7745 C.3         1 MMA       0.1130
      6 C6         -5.4746  -18.3887   -6.2057 C.3         1 MMA       0.0730
      7 C7         -6.8177  -19.3706   -1.9042 C.3         1 MMA       0.0395
      8 O1         -5.4199  -19.0444   -1.9504 O.3         1 MMA      -0.3520
      9 O2         -2.3164  -20.4472   -3.3451 O.3         1 MMA      -0.3841
     10 O3         -1.4418  -17.7704   -3.2192 O.3         1 MMA      -0.3864
     11 O4         -3.2665  -16.5734   -5.1748 O.3         1 MMA      -0.3865
     12 O5         -5.0158  -19.7160   -4.2259 O.3         1 MMA      -0.3405
     13 O6         -5.8417  -17.0789   -6.6235 O.3         1 MMA      -0.3924
     14 H1         -4.7133  -20.8984   -2.5546 H           1 MMA       0.0937
     15 H2         -2.8588  -19.4713   -1.6245 H           1 MMA       0.0671
     16 H3         -3.3566  -17.3070   -2.6501 H           1 MMA       0.0648
     17 H4         -2.7931  -18.5624   -5.3837 H           1 MMA       0.0647
     18 H5         -5.4922  -17.6897   -4.1802 H           1 MMA       0.0647
     19 H6         -6.3760  -19.0092   -6.2302 H           1 MMA       0.0584
     20 H7         -4.7550  -18.8011   -6.9172 H           1 MMA       0.0584
     21 H8         -7.3167  -18.6693   -1.2313 H           1 MMA       0.0525
     22 H9         -6.9613  -20.3811   -1.5176 H           1 MMA       0.0525
     23 H10        -7.2889  -19.2847   -2.8862 H           1 MMA       0.0525
     24 H11        -1.3930  -20.2513   -3.0744 H           1 MMA       0.2101
     25 H12        -1.3481  -16.9714   -2.6557 H           1 MMA       0.2100
     26 H13        -2.3011  -16.4150   -5.2395 H           1 MMA       0.2100
     27 H14        -6.1389  -16.6250   -5.8049 H           1 MMA       0.2095
@<TRIPOS>BOND
     1     1     2   1
     2     1     8   1
     3     1    12   1
     4     2     3   1
     5     2     9   1
     6     3     4   1
     7     3    10   1
     8     4     5   1
     9     4    11   1
    10     5     6   1
    11     5    12   1
    12     6    13   1
    13     8     7   1
    14     1    14   1
    15     2    15   1
    16     3    16   1
    17     4    17   1
    18     5    18   1
    19     6    19   1
    20     6    20   1
    21     7    21   1
    22     7    22   1
    23     7    23   1
    24     9    24   1
    25    10    25   1
    26    11    26   1
    27    13    27   1
@<TRIPOS>SUBSTRUCTURE
     1  MMA      1

