@<TRIPOS>MOLECULE
2jdy_ligand_037
    27    27
SMALL
GAST_HUCK
****
This file was generated by PARSER (from files_GN.cpp)

@<TRIPOS>ATOM
      1 C1         -5.8688  -18.1360   -5.9566 C.3         1 MMA       0.1876
      2 C2         -7.1439  -18.6799   -5.2594 C.3         1 MMA       0.1341
      3 C3         -7.6072  -17.7375   -4.1162 C.3         1 MMA       0.1141
      4 C4         -7.7293  -16.2692   -4.6140 C.3         1 MMA       0.1119
      5 C5         -6.5007  -15.7934   -5.4582 C.3         1 MMA       0.1130
      6 C6         -5.3104  -15.1915   -4.6606 C.3         1 MMA       0.0730
      7 C7         -4.2000  -19.0442   -7.4800 C.3         1 MMA       0.0395
      8 O1         -5.5784  -18.9824   -7.0855 O.3         1 MMA      -0.3520
      9 O2         -6.9219  -20.0010   -4.7607 O.3         1 MMA      -0.3841
     10 O3         -6.7214  -17.8388   -2.9989 O.3         1 MMA      -0.3864
     11 O4         -8.9029  -16.1622   -5.4259 O.3         1 MMA      -0.3865
     12 O5         -6.0781  -16.7821   -6.4209 O.3         1 MMA      -0.3405
     13 O6         -4.4981  -16.1408   -3.9816 O.3         1 MMA      -0.3924
     14 H1         -5.0341  -18.1737   -5.2479 H           1 MMA       0.0937
     15 H2         -7.9421  -18.7419   -6.0011 H           1 MMA       0.0671
     16 H3         -8.5862  -18.0730   -3.7572 H           1 MMA       0.0648
     17 H4         -7.8764  -15.6056   -3.7596 H           1 MMA       0.0647
     18 H5         -6.8588  -14.9542   -6.0643 H           1 MMA       0.0647
     19 H6         -5.6852  -14.4747   -3.9285 H           1 MMA       0.0584
     20 H7         -4.6583  -14.6562   -5.3530 H           1 MMA       0.0584
     21 H8         -4.1212  -19.7032   -8.3435 H           1 MMA       0.0525
     22 H9         -3.5846  -19.4521   -6.6783 H           1 MMA       0.0525
     23 H10        -3.8221  -18.0618   -7.7629 H           1 MMA       0.0525
     24 H11        -6.1997  -19.9142   -4.1023 H           1 MMA       0.2101
     25 H12        -6.8513  -17.0133   -2.4852 H           1 MMA       0.2100
     26 H13        -9.6620  -16.2735   -4.8144 H           1 MMA       0.2100
     27 H14        -4.9849  -16.3427   -3.1497 H           1 MMA       0.2095
@<TRIPOS>BOND
     1     1     2   1
     2     1     8   1
     3     1    12   1
     4     2     3   1
     5     2     9   1
     6     3     4   1
     7     3    10   1
     8     4     5   1
     9     4    11   1
    10     5     6   1
    11     5    12   1
    12     6    13   1
    13     8     7   1
    14     1    14   1
    15     2    15   1
    16     3    16   1
    17     4    17   1
    18     5    18   1
    19     6    19   1
    20     6    20   1
    21     7    21   1
    22     7    22   1
    23     7    23   1
    24     9    24   1
    25    10    25   1
    26    11    26   1
    27    13    27   1
@<TRIPOS>SUBSTRUCTURE
     1  MMA      1

