@<TRIPOS>MOLECULE
2jdy_ligand_029
    27    27
SMALL
GAST_HUCK
****
This file was generated by PARSER (from files_GN.cpp)

@<TRIPOS>ATOM
      1 C1         -3.1943  -18.9384   -5.7399 C.3         1 MMA       0.1876
      2 C2         -2.8543  -19.4076   -4.3025 C.3         1 MMA       0.1341
      3 C3         -4.1512  -19.6372   -3.4829 C.3         1 MMA       0.1141
      4 C4         -5.1086  -18.4086   -3.5522 C.3         1 MMA       0.1119
      5 C5         -5.3202  -17.9480   -5.0272 C.3         1 MMA       0.1130
      6 C6         -6.0778  -16.6062   -5.1439 C.3         1 MMA       0.0730
      7 C7         -4.2749  -19.6781   -7.7907 C.3         1 MMA       0.0395
      8 O1         -3.7510  -20.0366   -6.4937 O.3         1 MMA      -0.3520
      9 O2         -2.0164  -18.4414   -3.6732 O.3         1 MMA      -0.3841
     10 O3         -3.8320  -19.9698   -2.1301 O.3         1 MMA      -0.3864
     11 O4         -6.3616  -18.7354   -2.9412 O.3         1 MMA      -0.3865
     12 O5         -4.0524  -17.7783   -5.6909 O.3         1 MMA      -0.3405
     13 O6         -6.0102  -16.1416   -6.4899 O.3         1 MMA      -0.3924
     14 H1         -2.2578  -18.6392   -6.2280 H           1 MMA       0.0937
     15 H2         -2.2911  -20.3413   -4.3564 H           1 MMA       0.0671
     16 H3         -4.6696  -20.5047   -3.8991 H           1 MMA       0.0648
     17 H4         -4.6705  -17.5897   -2.9759 H           1 MMA       0.0647
     18 H5         -5.9034  -18.7097   -5.5561 H           1 MMA       0.0647
     19 H6         -5.6262  -15.8562   -4.4916 H           1 MMA       0.0584
     20 H7         -7.1243  -16.7292   -4.8645 H           1 MMA       0.0584
     21 H8         -4.5150  -20.5982   -8.3333 H           1 MMA       0.0525
     22 H9         -3.5445  -19.1169   -8.3877 H           1 MMA       0.0525
     23 H10        -5.1937  -19.0890   -7.6720 H           1 MMA       0.0525
     24 H11        -2.4844  -17.5842   -3.7529 H           1 MMA       0.2101
     25 H12        -3.6537  -19.1151   -1.6734 H           1 MMA       0.2100
     26 H13        -6.7338  -19.4687   -3.4822 H           1 MMA       0.2100
     27 H14        -6.0755  -15.1596   -6.4473 H           1 MMA       0.2095
@<TRIPOS>BOND
     1     1     2   1
     2     1     8   1
     3     1    12   1
     4     2     3   1
     5     2     9   1
     6     3     4   1
     7     3    10   1
     8     4     5   1
     9     4    11   1
    10     5     6   1
    11     5    12   1
    12     6    13   1
    13     8     7   1
    14     1    14   1
    15     2    15   1
    16     3    16   1
    17     4    17   1
    18     5    18   1
    19     6    19   1
    20     6    20   1
    21     7    21   1
    22     7    22   1
    23     7    23   1
    24     9    24   1
    25    10    25   1
    26    11    26   1
    27    13    27   1
@<TRIPOS>SUBSTRUCTURE
     1  MMA      1

