@<TRIPOS>MOLECULE
2jdy_ligand_027
    27    27
SMALL
GAST_HUCK
****
This file was generated by PARSER (from files_GN.cpp)

@<TRIPOS>ATOM
      1 C1        -10.0630  -17.2751   -3.8210 C.3         1 MMA       0.1876
      2 C2         -9.9973  -17.4918   -5.3595 C.3         1 MMA       0.1341
      3 C3         -8.6290  -17.0025   -5.9015 C.3         1 MMA       0.1141
      4 C4         -7.4498  -17.6610   -5.1198 C.3         1 MMA       0.1119
      5 C5         -7.6410  -17.5958   -3.5706 C.3         1 MMA       0.1130
      6 C6         -7.2142  -16.2482   -2.9310 C.3         1 MMA       0.0730
      7 C7        -12.0701  -16.9649   -2.4675 C.3         1 MMA       0.0395
      8 O1        -11.3146  -17.8030   -3.3588 O.3         1 MMA      -0.3520
      9 O2        -11.0870  -16.8315   -6.0069 O.3         1 MMA      -0.3841
     10 O3         -8.5706  -15.5801   -5.8316 O.3         1 MMA      -0.3864
     11 O4         -7.3330  -19.0280   -5.5278 O.3         1 MMA      -0.3865
     12 O5         -8.9816  -17.9836   -3.1808 O.3         1 MMA      -0.3405
     13 O6         -7.7663  -16.0993   -1.6312 O.3         1 MMA      -0.3924
     14 H1         -9.9777  -16.1997   -3.6246 H           1 MMA       0.0937
     15 H2        -10.0993  -18.5620   -5.5664 H           1 MMA       0.0671
     16 H3         -8.5600  -17.2660   -6.9556 H           1 MMA       0.0648
     17 H4         -6.5134  -17.1752   -5.4038 H           1 MMA       0.0647
     18 H5         -6.9847  -18.3507   -3.1310 H           1 MMA       0.0647
     19 H6         -7.5566  -15.4152   -3.5342 H           1 MMA       0.0584
     20 H7         -6.1219  -16.1886   -2.8563 H           1 MMA       0.0584
     21 H8        -12.9538  -17.5198   -2.1457 H           1 MMA       0.0525
     22 H9        -12.3979  -16.0671   -2.9863 H           1 MMA       0.0525
     23 H10       -11.4833  -16.6934   -1.5911 H           1 MMA       0.0525
     24 H11       -11.1920  -15.9657   -5.5371 H           1 MMA       0.2101
     25 H12        -7.6344  -15.3410   -5.9948 H           1 MMA       0.2100
     26 H13        -7.0296  -19.0037   -6.4653 H           1 MMA       0.2100
     27 H14        -7.5718  -15.1732   -1.3707 H           1 MMA       0.2095
@<TRIPOS>BOND
     1     1     2   1
     2     1     8   1
     3     1    12   1
     4     2     3   1
     5     2     9   1
     6     3     4   1
     7     3    10   1
     8     4     5   1
     9     4    11   1
    10     5     6   1
    11     5    12   1
    12     6    13   1
    13     8     7   1
    14     1    14   1
    15     2    15   1
    16     3    16   1
    17     4    17   1
    18     5    18   1
    19     6    19   1
    20     6    20   1
    21     7    21   1
    22     7    22   1
    23     7    23   1
    24     9    24   1
    25    10    25   1
    26    11    26   1
    27    13    27   1
@<TRIPOS>SUBSTRUCTURE
     1  MMA      1

