@<TRIPOS>MOLECULE
2obf_ligand_004
    41    43
SMALL
GAST_HUCK
****
This file was generated by PARSER (from files_GN.cpp)

@<TRIPOS>ATOM
      1 O1         24.4780   47.2730    7.7534 O.3         1 F83      -0.3893
      2 C1         24.5816   47.7977    9.0748 C.3         1 F83       0.0886
      3 C2         24.8709   46.6842   10.1164 C.3         1 F83       0.0107
      4 N1         24.7239   47.2337   11.4828 N.4         1 F83       0.2432
      5 C3         24.8682   46.2322   12.5637 C.3         1 F83      -0.0016
      6 C4         26.0220   45.3121   12.3848 C.ar        1 F83       0.0053
      7 C5         26.4239   44.4802   13.4561 C.ar        1 F83      -0.0347
      8 C6         27.5156   43.5988   13.3173 C.ar        1 F83       0.1007
      9 C7         28.2176   43.5635   12.0966 C.ar        1 F83      -0.0484
     10 C8         27.8232   44.3808   11.0233 C.ar        1 F83      -0.0646
     11 C9         26.7078   45.2399   11.1423 C.ar        1 F83      -0.0305
     12 C10        26.2924   46.0619    9.9712 C.3         1 F83       0.0239
     13 S1         28.0028   42.5625   14.6322 S.o2        1 F83       0.0850
     14 O2         28.6100   41.1989   14.0841 O.2         1 F83      -0.1456
     15 O3         26.7409   42.1133   15.4921 O.2         1 F83      -0.1456
     16 N2         29.1740   43.2358   15.6372 N.am        1 F83      -0.1875
     17 C11        28.9013   43.6507   16.8921 C.ar        1 F83       0.0630
     18 C12        28.9772   42.7464   17.9722 C.ar        1 F83      -0.0448
     19 C13        28.7663   43.1967   19.2894 C.ar        1 F83      -0.0639
     20 C14        28.4838   44.5562   19.5335 C.ar        1 F83       0.0218
     21 C15        28.4104   45.4607   18.4552 C.ar        1 F83      -0.0639
     22 C16        28.6233   45.0112   17.1387 C.ar        1 F83      -0.0448
     23 CL1        28.2405   45.1032   21.1164 Cl          1 F83      -0.0866
     24 H1         25.3547   46.8848    7.5527 H           1 F83       0.2097
     25 H2         23.6310   48.2808    9.3098 H           1 F83       0.0615
     26 H3         25.3637   48.5602    9.0983 H           1 F83       0.0615
     27 H4         24.1201   45.8969    9.9799 H           1 F83       0.0895
     28 H5         23.8006   47.6650   11.5668 H           1 F83       0.2032
     29 H6         25.4366   47.9555   11.6144 H           1 F83       0.2032
     30 H7         23.9509   45.6421   12.6281 H           1 F83       0.0964
     31 H8         24.9838   46.7881   13.4972 H           1 F83       0.0964
     32 H9         25.9175   44.5225   14.3447 H           1 F83       0.0559
     33 H10        29.0183   42.9392   11.9758 H           1 F83       0.0561
     34 H11        28.3479   44.3339   10.1462 H           1 F83       0.0538
     35 H12        27.0354   46.8534    9.8421 H           1 F83       0.0467
     36 H13        26.2995   45.4406    9.0711 H           1 F83       0.0467
     37 H14        30.0693   43.3782   15.2932 H           1 F83       0.2165
     38 H15        29.1969   41.7606   17.8049 H           1 F83       0.0483
     39 H16        28.8360   42.5353   20.0688 H           1 F83       0.0579
     40 H17        28.2148   46.4492   18.6234 H           1 F83       0.0579
     41 H18        28.5771   45.6791   16.3643 H           1 F83       0.0483
@<TRIPOS>BOND
     1     1     2   1
     2     2     3   1
     3     3     4   1
     4     3    12   1
     5     4     5   1
     6     5     6   1
     7     6     7  ar
     8     6    11  ar
     9     7     8  ar
    10     8     9  ar
    11     8    13   1
    12     9    10  ar
    13    10    11  ar
    14    11    12   1
    15    13    14   2
    16    13    15   2
    17    13    16  am
    18    16    17   1
    19    17    18  ar
    20    17    22  ar
    21    18    19  ar
    22    19    20  ar
    23    20    21  ar
    24    20    23   1
    25    21    22  ar
    26     1    24   1
    27     2    25   1
    28     2    26   1
    29     3    27   1
    30     4    28   1
    31     4    29   1
    32     5    30   1
    33     5    31   1
    34     7    32   1
    35     9    33   1
    36    10    34   1
    37    12    35   1
    38    12    36   1
    39    16    37   1
    40    18    38   1
    41    19    39   1
    42    21    40   1
    43    22    41   1
@<TRIPOS>SUBSTRUCTURE
     1  F83      2

