@<TRIPOS>MOLECULE
2obf_ligand_014
    41    43
SMALL
GAST_HUCK
****
This file was generated by PARSER (from files_GN.cpp)

@<TRIPOS>ATOM
      1 O1         27.0321   41.0077   17.7646 O.3         1 F83      -0.3893
      2 C1         28.3517   41.4288   17.4335 C.3         1 F83       0.0886
      3 C2         28.6303   42.8907   17.8670 C.3         1 F83       0.0107
      4 N1         30.0964   43.0938   17.8961 N.4         1 F83       0.2432
      5 C3         30.5392   44.4516   18.2710 C.3         1 F83      -0.0016
      6 C4         29.7799   45.0656   19.3905 C.ar        1 F83       0.0053
      7 C5         30.2620   46.2565   19.9722 C.ar        1 F83      -0.0347
      8 C6         29.5197   46.9367   20.9557 C.ar        1 F83       0.1007
      9 C7         28.3046   46.3800   21.4034 C.ar        1 F83      -0.0484
     10 C8         27.8336   45.1738   20.8619 C.ar        1 F83      -0.0646
     11 C9         28.5468   44.5115   19.8317 C.ar        1 F83      -0.0305
     12 C10        28.0131   43.2491   19.2515 C.3         1 F83       0.0239
     13 S1         30.1035   48.4387   21.6232 S.o2        1 F83       0.0850
     14 O2         31.5849   48.7474   21.1365 O.2         1 F83      -0.1456
     15 O3         30.1609   48.2104   23.1926 O.2         1 F83      -0.1456
     16 N2         29.1474   49.7776   21.2366 N.am        1 F83      -0.1875
     17 C11        29.2396   50.9430   21.9285 C.ar        1 F83       0.0630
     18 C12        29.5866   52.1289   21.2422 C.ar        1 F83      -0.0448
     19 C13        29.6747   53.3548   21.9265 C.ar        1 F83      -0.0639
     20 C14        29.3891   53.4159   23.3055 C.ar        1 F83       0.0218
     21 C15        29.0186   52.2422   23.9929 C.ar        1 F83      -0.0639
     22 C16        28.9455   51.0188   23.3071 C.ar        1 F83      -0.0448
     23 CL1        29.4671   54.8927   24.1284 Cl          1 F83      -0.0866
     24 H1         26.4366   41.5778   17.2325 H           1 F83       0.2097
     25 H2         28.4836   41.3326   16.3531 H           1 F83       0.0615
     26 H3         29.0581   40.7563   17.9211 H           1 F83       0.0615
     27 H4         28.2036   43.5560   17.1092 H           1 F83       0.0895
     28 H5         30.4801   42.8883   16.9737 H           1 F83       0.2032
     29 H6         30.4991   42.4297   18.5584 H           1 F83       0.2032
     30 H7         30.4496   45.1062   17.4026 H           1 F83       0.0964
     31 H8         31.5943   44.3836   18.5395 H           1 F83       0.0964
     32 H9         31.1588   46.6339   19.6594 H           1 F83       0.0559
     33 H10        27.7562   46.8527   22.1278 H           1 F83       0.0561
     34 H11        26.9485   44.7903   21.2045 H           1 F83       0.0538
     35 H12        28.2049   42.4413   19.9622 H           1 F83       0.0467
     36 H13        26.9301   43.3321   19.1287 H           1 F83       0.0467
     37 H14        28.9090   49.8484   20.2978 H           1 F83       0.2165
     38 H15        29.7986   52.0989   20.2391 H           1 F83       0.0483
     39 H16        29.9411   54.2067   21.4240 H           1 F83       0.0579
     40 H17        28.7956   52.2810   24.9897 H           1 F83       0.0579
     41 H18        28.6477   50.1863   23.8228 H           1 F83       0.0483
@<TRIPOS>BOND
     1     1     2   1
     2     2     3   1
     3     3     4   1
     4     3    12   1
     5     4     5   1
     6     5     6   1
     7     6     7  ar
     8     6    11  ar
     9     7     8  ar
    10     8     9  ar
    11     8    13   1
    12     9    10  ar
    13    10    11  ar
    14    11    12   1
    15    13    14   2
    16    13    15   2
    17    13    16  am
    18    16    17   1
    19    17    18  ar
    20    17    22  ar
    21    18    19  ar
    22    19    20  ar
    23    20    21  ar
    24    20    23   1
    25    21    22  ar
    26     1    24   1
    27     2    25   1
    28     2    26   1
    29     3    27   1
    30     4    28   1
    31     4    29   1
    32     5    30   1
    33     5    31   1
    34     7    32   1
    35     9    33   1
    36    10    34   1
    37    12    35   1
    38    12    36   1
    39    16    37   1
    40    18    38   1
    41    19    39   1
    42    21    40   1
    43    22    41   1
@<TRIPOS>SUBSTRUCTURE
     1  F83      2

