@<TRIPOS>MOLECULE
2obf_ligand_012
    41    43
SMALL
GAST_HUCK
****
This file was generated by PARSER (from files_GN.cpp)

@<TRIPOS>ATOM
      1 O1         23.7935   45.1974   10.6399 O.3         1 F83      -0.3893
      2 C1         23.8561   46.3546    9.8044 C.3         1 F83       0.0886
      3 C2         25.0825   47.2566   10.1187 C.3         1 F83       0.0107
      4 N1         26.2972   46.8285    9.3932 N.4         1 F83       0.2432
      5 C3         26.9096   45.5572    9.8354 C.3         1 F83      -0.0016
      6 C4         26.9107   45.3561   11.3042 C.ar        1 F83       0.0053
      7 C5         27.5964   44.2486   11.8442 C.ar        1 F83      -0.0347
      8 C6         27.5765   43.9898   13.2294 C.ar        1 F83       0.1007
      9 C7         26.8591   44.8597   14.0755 C.ar        1 F83      -0.0484
     10 C8         26.1940   45.9797   13.5475 C.ar        1 F83      -0.0646
     11 C9         26.1846   46.2284   12.1565 C.ar        1 F83      -0.0305
     12 C10        25.4209   47.3889   11.6291 C.3         1 F83       0.0239
     13 S1         28.4751   42.6337   13.8545 S.o2        1 F83       0.0850
     14 O2         30.0255   42.7940   13.5713 O.2         1 F83      -0.1456
     15 O3         28.1257   41.3388   12.9899 O.2         1 F83      -0.1456
     16 N2         28.2270   42.1979   15.4707 N.am        1 F83      -0.1875
     17 C11        28.7837   42.7895   16.5666 C.ar        1 F83       0.0630
     18 C12        28.7703   42.0553   17.7717 C.ar        1 F83      -0.0448
     19 C13        29.3480   42.5846   18.9398 C.ar        1 F83      -0.0639
     20 C14        29.9348   43.8642   18.9252 C.ar        1 F83       0.0218
     21 C15        29.9261   44.6156   17.7365 C.ar        1 F83      -0.0639
     22 C16        29.3627   44.0821   16.5662 C.ar        1 F83      -0.0448
     23 CL1        30.6607   44.4989   20.3117 Cl          1 F83      -0.0866
     24 H1         23.1120   44.6037   10.2411 H           1 F83       0.2097
     25 H2         22.9290   46.9194    9.9270 H           1 F83       0.0615
     26 H3         23.9062   46.0302    8.7637 H           1 F83       0.0615
     27 H4         24.8491   48.2593    9.7443 H           1 F83       0.0895
     28 H5         26.9967   47.5615    9.5122 H           1 F83       0.2032
     29 H6         26.0742   46.7495    8.4001 H           1 F83       0.2032
     30 H7         27.9387   45.5529    9.4680 H           1 F83       0.0964
     31 H8         26.3799   44.7251    9.3644 H           1 F83       0.0964
     32 H9         28.1201   43.6227   11.2168 H           1 F83       0.0559
     33 H10        26.8187   44.6901   15.0859 H           1 F83       0.0561
     34 H11        25.6908   46.6025   14.1887 H           1 F83       0.0538
     35 H12        24.4927   47.5226   12.1934 H           1 F83       0.0467
     36 H13        26.0304   48.2850   11.7895 H           1 F83       0.0467
     37 H14        27.7071   41.3823   15.6170 H           1 F83       0.2165
     38 H15        28.3583   41.1177   17.8055 H           1 F83       0.0483
     39 H16        29.3530   42.0257   19.8015 H           1 F83       0.0579
     40 H17        30.3479   45.5486   17.7071 H           1 F83       0.0579
     41 H18        29.3859   44.6499   15.7200 H           1 F83       0.0483
@<TRIPOS>BOND
     1     1     2   1
     2     2     3   1
     3     3     4   1
     4     3    12   1
     5     4     5   1
     6     5     6   1
     7     6     7  ar
     8     6    11  ar
     9     7     8  ar
    10     8     9  ar
    11     8    13   1
    12     9    10  ar
    13    10    11  ar
    14    11    12   1
    15    13    14   2
    16    13    15   2
    17    13    16  am
    18    16    17   1
    19    17    18  ar
    20    17    22  ar
    21    18    19  ar
    22    19    20  ar
    23    20    21  ar
    24    20    23   1
    25    21    22  ar
    26     1    24   1
    27     2    25   1
    28     2    26   1
    29     3    27   1
    30     4    28   1
    31     4    29   1
    32     5    30   1
    33     5    31   1
    34     7    32   1
    35     9    33   1
    36    10    34   1
    37    12    35   1
    38    12    36   1
    39    16    37   1
    40    18    38   1
    41    19    39   1
    42    21    40   1
    43    22    41   1
@<TRIPOS>SUBSTRUCTURE
     1  F83      2

