@<TRIPOS>MOLECULE
2obf_ligand_023
    41    43
SMALL
GAST_HUCK
****
This file was generated by PARSER (from files_GN.cpp)

@<TRIPOS>ATOM
      1 O1         30.6082   42.8125   19.7500 O.3         1 F83      -0.3893
      2 C1         29.5054   42.4027   18.9417 C.3         1 F83       0.0886
      3 C2         28.3132   43.3942   19.0622 C.3         1 F83       0.0107
      4 N1         27.0561   42.7801   18.5688 N.4         1 F83       0.2432
      5 C3         26.9598   42.5752   17.1071 C.3         1 F83      -0.0016
      6 C4         27.5347   43.6683   16.2818 C.ar        1 F83       0.0053
      7 C5         27.3441   43.6468   14.8835 C.ar        1 F83      -0.0347
      8 C6         27.8860   44.6560   14.0659 C.ar        1 F83       0.1007
      9 C7         28.5971   45.7130   14.6635 C.ar        1 F83      -0.0484
     10 C8         28.7870   45.7521   16.0527 C.ar        1 F83      -0.0646
     11 C9         28.2907   44.7150   16.8750 C.ar        1 F83      -0.0305
     12 C10        28.5629   44.7500   18.3353 C.3         1 F83       0.0239
     13 S1         27.6598   44.6190   12.3304 S.o2        1 F83       0.0850
     14 O2         27.5340   43.1340   11.7792 O.2         1 F83      -0.1456
     15 O3         28.9277   45.2911   11.6538 O.2         1 F83      -0.1456
     16 N2         26.3602   45.5486   11.8092 N.am        1 F83      -0.1875
     17 C11        25.1757   45.4849   12.4490 C.ar        1 F83       0.0630
     18 C12        24.8842   46.4237   13.4564 C.ar        1 F83      -0.0448
     19 C13        23.6458   46.3846   14.1240 C.ar        1 F83      -0.0639
     20 C14        22.6978   45.3959   13.7936 C.ar        1 F83       0.0218
     21 C15        22.9918   44.4501   12.7874 C.ar        1 F83      -0.0639
     22 C16        24.2227   44.5055   12.1066 C.ar        1 F83      -0.0448
     23 CL1        21.1992   45.3613   14.5757 Cl          1 F83      -0.0866
     24 H1         30.3248   42.6093   20.6663 H           1 F83       0.2097
     25 H2         29.1956   41.4059   19.2729 H           1 F83       0.0615
     26 H3         29.8429   42.3368   17.9038 H           1 F83       0.0615
     27 H4         28.1659   43.5969   20.1289 H           1 F83       0.0895
     28 H5         26.2900   43.3864   18.8598 H           1 F83       0.2032
     29 H6         26.9286   41.8803   19.0344 H           1 F83       0.2032
     30 H7         25.8993   42.4733   16.8726 H           1 F83       0.0964
     31 H8         27.4572   41.6378   16.8501 H           1 F83       0.0964
     32 H9         26.8090   42.8847   14.4577 H           1 F83       0.0559
     33 H10        28.9988   46.4533   14.0864 H           1 F83       0.0561
     34 H11        29.3069   46.5355   16.4595 H           1 F83       0.0538
     35 H12        29.5977   45.0580   18.5103 H           1 F83       0.0467
     36 H13        27.9198   45.5141   18.7757 H           1 F83       0.0467
     37 H14        26.3737   45.8677   10.8961 H           1 F83       0.2165
     38 H15        25.5690   47.1496   13.7021 H           1 F83       0.0483
     39 H16        23.4397   47.0809   14.8499 H           1 F83       0.0579
     40 H17        22.3072   43.7351   12.5389 H           1 F83       0.0579
     41 H18        24.4209   43.8269   11.3698 H           1 F83       0.0483
@<TRIPOS>BOND
     1     1     2   1
     2     2     3   1
     3     3     4   1
     4     3    12   1
     5     4     5   1
     6     5     6   1
     7     6     7  ar
     8     6    11  ar
     9     7     8  ar
    10     8     9  ar
    11     8    13   1
    12     9    10  ar
    13    10    11  ar
    14    11    12   1
    15    13    14   2
    16    13    15   2
    17    13    16  am
    18    16    17   1
    19    17    18  ar
    20    17    22  ar
    21    18    19  ar
    22    19    20  ar
    23    20    21  ar
    24    20    23   1
    25    21    22  ar
    26     1    24   1
    27     2    25   1
    28     2    26   1
    29     3    27   1
    30     4    28   1
    31     4    29   1
    32     5    30   1
    33     5    31   1
    34     7    32   1
    35     9    33   1
    36    10    34   1
    37    12    35   1
    38    12    36   1
    39    16    37   1
    40    18    38   1
    41    19    39   1
    42    21    40   1
    43    22    41   1
@<TRIPOS>SUBSTRUCTURE
     1  F83      2

