@<TRIPOS>MOLECULE
2obf_ligand_018
    41    43
SMALL
GAST_HUCK
****
This file was generated by PARSER (from files_GN.cpp)

@<TRIPOS>ATOM
      1 O1         27.2998   53.4288   17.8135 O.3         1 F83      -0.3893
      2 C1         26.7210   52.2527   17.2433 C.3         1 F83       0.0886
      3 C2         27.6763   51.0269   17.1933 C.3         1 F83       0.0107
      4 N1         27.5649   50.1291   18.3713 N.4         1 F83       0.2432
      5 C3         28.1072   50.6521   19.6488 C.3         1 F83      -0.0016
      6 C4         29.4125   51.3482   19.4970 C.ar        1 F83       0.0053
      7 C5         30.1396   51.6937   20.6556 C.ar        1 F83      -0.0347
      8 C6         31.3966   52.3377   20.5613 C.ar        1 F83       0.1007
      9 C7         31.9256   52.5981   19.2839 C.ar        1 F83      -0.0484
     10 C8         31.1960   52.2808   18.1295 C.ar        1 F83      -0.0646
     11 C9         29.9247   51.6771   18.2190 C.ar        1 F83      -0.0305
     12 C10        29.1828   51.3578   16.9655 C.3         1 F83       0.0239
     13 S1         32.2702   52.7862   22.0005 S.o2        1 F83       0.0850
     14 O2         33.5762   53.6323   21.6957 O.2         1 F83      -0.1456
     15 O3         32.7638   51.4348   22.6682 O.2         1 F83      -0.1456
     16 N2         31.2961   53.5552   23.1384 N.am        1 F83      -0.1875
     17 C11        31.7538   53.7651   24.4010 C.ar        1 F83       0.0630
     18 C12        31.0729   53.1464   25.4729 C.ar        1 F83      -0.0448
     19 C13        31.5208   53.3355   26.7928 C.ar        1 F83      -0.0639
     20 C14        32.6207   54.1620   27.0635 C.ar        1 F83       0.0218
     21 C15        33.2896   54.7967   25.9948 C.ar        1 F83      -0.0639
     22 C16        32.8665   54.5855   24.6710 C.ar        1 F83      -0.0448
     23 CL1        33.1318   54.4111   28.6539 Cl          1 F83      -0.0866
     24 H1         27.2430   53.3116   18.8074 H           1 F83       0.2097
     25 H2         26.4030   52.5173   16.2353 H           1 F83       0.0615
     26 H3         25.8318   52.0194   17.8249 H           1 F83       0.0615
     27 H4         27.3512   50.4191   16.3430 H           1 F83       0.0895
     28 H5         28.0914   49.2773   18.1536 H           1 F83       0.2032
     29 H6         26.5825   49.8872   18.5023 H           1 F83       0.2032
     30 H7         28.2338   49.7985   20.3127 H           1 F83       0.0964
     31 H8         27.3885   51.3316   20.0990 H           1 F83       0.0964
     32 H9         29.7578   51.4654   21.5798 H           1 F83       0.0559
     33 H10        32.8498   53.0333   19.1859 H           1 F83       0.0561
     34 H11        31.5927   52.4944   17.2090 H           1 F83       0.0538
     35 H12        29.2569   52.1890   16.2586 H           1 F83       0.0467
     36 H13        29.6758   50.4937   16.5055 H           1 F83       0.0467
     37 H14        30.3340   53.3908   23.0481 H           1 F83       0.2165
     38 H15        30.2618   52.5478   25.2941 H           1 F83       0.0483
     39 H16        31.0205   52.8734   27.5636 H           1 F83       0.0579
     40 H17        34.0793   55.4194   26.1828 H           1 F83       0.0579
     41 H18        33.3661   55.0543   23.9116 H           1 F83       0.0483
@<TRIPOS>BOND
     1     1     2   1
     2     2     3   1
     3     3     4   1
     4     3    12   1
     5     4     5   1
     6     5     6   1
     7     6     7  ar
     8     6    11  ar
     9     7     8  ar
    10     8     9  ar
    11     8    13   1
    12     9    10  ar
    13    10    11  ar
    14    11    12   1
    15    13    14   2
    16    13    15   2
    17    13    16  am
    18    16    17   1
    19    17    18  ar
    20    17    22  ar
    21    18    19  ar
    22    19    20  ar
    23    20    21  ar
    24    20    23   1
    25    21    22  ar
    26     1    24   1
    27     2    25   1
    28     2    26   1
    29     3    27   1
    30     4    28   1
    31     4    29   1
    32     5    30   1
    33     5    31   1
    34     7    32   1
    35     9    33   1
    36    10    34   1
    37    12    35   1
    38    12    36   1
    39    16    37   1
    40    18    38   1
    41    19    39   1
    42    21    40   1
    43    22    41   1
@<TRIPOS>SUBSTRUCTURE
     1  F83      2

