@<TRIPOS>MOLECULE
2obf_ligand_013
    41    43
SMALL
GAST_HUCK
****
This file was generated by PARSER (from files_GN.cpp)

@<TRIPOS>ATOM
      1 O1         23.5851   45.2968   14.4691 O.3         1 F83      -0.3893
      2 C1         24.2135   46.1819   13.5341 C.3         1 F83       0.0886
      3 C2         25.4582   45.5518   12.8327 C.3         1 F83       0.0107
      4 N1         25.3286   44.0907   12.6089 N.4         1 F83       0.2432
      5 C3         25.5337   43.2033   13.7861 C.3         1 F83      -0.0016
      6 C4         26.5181   43.6815   14.7912 C.ar        1 F83       0.0053
      7 C5         26.8362   42.8719   15.9071 C.ar        1 F83      -0.0347
      8 C6         27.7984   43.2783   16.8548 C.ar        1 F83       0.1007
      9 C7         28.4637   44.5056   16.6695 C.ar        1 F83      -0.0484
     10 C8         28.1440   45.3279   15.5770 C.ar        1 F83      -0.0646
     11 C9         27.1501   44.9431   14.6496 C.ar        1 F83      -0.0305
     12 C10        26.8231   45.8457   13.5166 C.3         1 F83       0.0239
     13 S1         28.1616   42.2691   18.2297 S.o2        1 F83       0.0850
     14 O2         28.6550   40.8850   17.6219 O.2         1 F83      -0.1456
     15 O3         26.8593   41.8544   19.0450 O.2         1 F83      -0.1456
     16 N2         29.4256   42.7497   19.2421 N.am        1 F83      -0.1875
     17 C11        29.4861   43.9669   19.8478 C.ar        1 F83       0.0630
     18 C12        30.7141   44.6619   19.8083 C.ar        1 F83      -0.0448
     19 C13        30.8193   45.9614   20.3360 C.ar        1 F83      -0.0639
     20 C14        29.7096   46.5685   20.9526 C.ar        1 F83       0.0218
     21 C15        28.4881   45.8700   21.0339 C.ar        1 F83      -0.0639
     22 C16        28.3775   44.5766   20.4840 C.ar        1 F83      -0.0448
     23 CL1        29.8393   48.1393   21.5814 Cl          1 F83      -0.0866
     24 H1         22.8386   45.8308   14.8394 H           1 F83       0.2097
     25 H2         24.5128   47.1020   14.0616 H           1 F83       0.0615
     26 H3         23.4664   46.4565   12.7728 H           1 F83       0.0615
     27 H4         25.4950   46.0052   11.8362 H           1 F83       0.0895
     28 H5         26.0293   43.8358   11.9058 H           1 F83       0.2032
     29 H6         24.4057   43.8985   12.2035 H           1 F83       0.2032
     30 H7         25.8836   42.2414   13.3982 H           1 F83       0.0964
     31 H8         24.5705   43.0545   14.2793 H           1 F83       0.0964
     32 H9         26.3697   41.9704   16.0227 H           1 F83       0.0559
     33 H10        29.1897   44.8186   17.3190 H           1 F83       0.0561
     34 H11        28.6447   46.2202   15.4669 H           1 F83       0.0538
     35 H12        26.8205   46.8848   13.8475 H           1 F83       0.0467
     36 H13        27.6143   45.7238   12.7726 H           1 F83       0.0467
     37 H14        30.2672   42.2738   19.1174 H           1 F83       0.2165
     38 H15        31.5245   44.2503   19.3463 H           1 F83       0.0483
     39 H16        31.6996   46.4686   20.2525 H           1 F83       0.0579
     40 H17        27.6769   46.3064   21.4880 H           1 F83       0.0579
     41 H18        27.4787   44.0960   20.5481 H           1 F83       0.0483
@<TRIPOS>BOND
     1     1     2   1
     2     2     3   1
     3     3     4   1
     4     3    12   1
     5     4     5   1
     6     5     6   1
     7     6     7  ar
     8     6    11  ar
     9     7     8  ar
    10     8     9  ar
    11     8    13   1
    12     9    10  ar
    13    10    11  ar
    14    11    12   1
    15    13    14   2
    16    13    15   2
    17    13    16  am
    18    16    17   1
    19    17    18  ar
    20    17    22  ar
    21    18    19  ar
    22    19    20  ar
    23    20    21  ar
    24    20    23   1
    25    21    22  ar
    26     1    24   1
    27     2    25   1
    28     2    26   1
    29     3    27   1
    30     4    28   1
    31     4    29   1
    32     5    30   1
    33     5    31   1
    34     7    32   1
    35     9    33   1
    36    10    34   1
    37    12    35   1
    38    12    36   1
    39    16    37   1
    40    18    38   1
    41    19    39   1
    42    21    40   1
    43    22    41   1
@<TRIPOS>SUBSTRUCTURE
     1  F83      2

