@<TRIPOS>MOLECULE
2obf_ligand_019
    41    43
SMALL
GAST_HUCK
****
This file was generated by PARSER (from files_GN.cpp)

@<TRIPOS>ATOM
      1 O1         25.9417   44.0687   11.3878 O.3         1 F83      -0.3893
      2 C1         26.2951   44.1003   12.7681 C.3         1 F83       0.0886
      3 C2         27.8365   44.2860   12.9432 C.3         1 F83       0.0107
      4 N1         28.5265   43.0131   13.2634 N.4         1 F83       0.2432
      5 C3         28.2992   42.4818   14.6317 C.3         1 F83      -0.0016
      6 C4         28.2642   43.5111   15.7056 C.ar        1 F83       0.0053
      7 C5         28.2156   43.1058   17.0631 C.ar        1 F83      -0.0347
      8 C6         28.1957   44.0550   18.1074 C.ar        1 F83       0.1007
      9 C7         28.2556   45.4231   17.7860 C.ar        1 F83      -0.0484
     10 C8         28.2946   45.8397   16.4417 C.ar        1 F83      -0.0646
     11 C9         28.2595   44.8947   15.3937 C.ar        1 F83      -0.0305
     12 C10        28.2561   45.3672   13.9849 C.3         1 F83       0.0239
     13 S1         28.1264   43.5587   19.7786 S.o2        1 F83       0.0850
     14 O2         27.7897   42.0129   19.9322 O.2         1 F83      -0.1456
     15 O3         26.9236   44.3649   20.4339 O.2         1 F83      -0.1456
     16 N2         29.4794   43.9794   20.6873 N.am        1 F83      -0.1875
     17 C11        30.7124   43.9423   20.1380 C.ar        1 F83       0.0630
     18 C12        31.3898   45.1434   19.8490 C.ar        1 F83      -0.0448
     19 C13        32.6882   45.1070   19.3058 C.ar        1 F83      -0.0639
     20 C14        33.3183   43.8719   19.0390 C.ar        1 F83       0.0218
     21 C15        32.6463   42.6742   19.3389 C.ar        1 F83      -0.0639
     22 C16        31.3584   42.7126   19.8957 C.ar        1 F83      -0.0448
     23 CL1        34.8652   43.8264   18.3517 Cl          1 F83      -0.0866
     24 H1         24.9860   43.8250   11.3688 H           1 F83       0.2097
     25 H2         25.9454   43.1750   13.2257 H           1 F83       0.0615
     26 H3         25.7428   44.9224   13.2279 H           1 F83       0.0615
     27 H4         28.2394   44.6191   11.9795 H           1 F83       0.0895
     28 H5         29.5312   43.1822   13.1403 H           1 F83       0.2032
     29 H6         28.2423   42.3009   12.5859 H           1 F83       0.2032
     30 H7         29.1049   41.7764   14.8368 H           1 F83       0.0964
     31 H8         27.3637   41.9227   14.6521 H           1 F83       0.0964
     32 H9         28.1963   42.1052   17.2845 H           1 F83       0.0559
     33 H10        28.2643   46.1318   18.5258 H           1 F83       0.0561
     34 H11        28.3246   46.8406   16.2382 H           1 F83       0.0538
     35 H12        27.5940   46.2295   13.8843 H           1 F83       0.0467
     36 H13        29.2700   45.7113   13.7511 H           1 F83       0.0467
     37 H14        29.4190   43.8481   21.6530 H           1 F83       0.2165
     38 H15        30.9507   46.0482   20.0361 H           1 F83       0.0483
     39 H16        33.1821   45.9805   19.1066 H           1 F83       0.0579
     40 H17        33.0918   41.7753   19.1489 H           1 F83       0.0579
     41 H18        30.8769   41.8423   20.1299 H           1 F83       0.0483
@<TRIPOS>BOND
     1     1     2   1
     2     2     3   1
     3     3     4   1
     4     3    12   1
     5     4     5   1
     6     5     6   1
     7     6     7  ar
     8     6    11  ar
     9     7     8  ar
    10     8     9  ar
    11     8    13   1
    12     9    10  ar
    13    10    11  ar
    14    11    12   1
    15    13    14   2
    16    13    15   2
    17    13    16  am
    18    16    17   1
    19    17    18  ar
    20    17    22  ar
    21    18    19  ar
    22    19    20  ar
    23    20    21  ar
    24    20    23   1
    25    21    22  ar
    26     1    24   1
    27     2    25   1
    28     2    26   1
    29     3    27   1
    30     4    28   1
    31     4    29   1
    32     5    30   1
    33     5    31   1
    34     7    32   1
    35     9    33   1
    36    10    34   1
    37    12    35   1
    38    12    36   1
    39    16    37   1
    40    18    38   1
    41    19    39   1
    42    21    40   1
    43    22    41   1
@<TRIPOS>SUBSTRUCTURE
     1  F83      2

