@<TRIPOS>MOLECULE
2obf_ligand_009
    41    43
SMALL
GAST_HUCK
****
This file was generated by PARSER (from files_GN.cpp)

@<TRIPOS>ATOM
      1 O1         32.4948   54.4240   22.7081 O.3         1 F83      -0.3893
      2 C1         31.7309   53.4466   22.0080 C.3         1 F83       0.0886
      3 C2         30.2707   53.3667   22.5552 C.3         1 F83       0.0107
      4 N1         30.1812   52.6818   23.8725 N.4         1 F83       0.2432
      5 C3         30.4698   51.2242   23.8658 C.3         1 F83      -0.0016
      6 C4         29.9268   50.4947   22.6888 C.ar        1 F83       0.0053
      7 C5         30.0045   49.0832   22.6552 C.ar        1 F83      -0.0347
      8 C6         29.4861   48.3517   21.5670 C.ar        1 F83       0.1007
      9 C7         28.8996   49.0486   20.4919 C.ar        1 F83      -0.0484
     10 C8         28.8291   50.4525   20.5090 C.ar        1 F83      -0.0646
     11 C9         29.3565   51.1917   21.5902 C.ar        1 F83      -0.0305
     12 C10        29.2804   52.6778   21.5707 C.3         1 F83       0.0239
     13 S1         29.5588   46.6107   21.5547 S.o2        1 F83       0.0850
     14 O2         29.8022   46.0100   23.0057 O.2         1 F83      -0.1456
     15 O3         30.8251   46.2332   20.6707 O.2         1 F83      -0.1456
     16 N2         28.1812   45.8935   20.8977 N.am        1 F83      -0.1875
     17 C11        28.2411   44.9960   19.8896 C.ar        1 F83       0.0630
     18 C12        28.3514   45.4358   18.5542 C.ar        1 F83      -0.0448
     19 C13        28.3586   44.5054   17.4995 C.ar        1 F83      -0.0639
     20 C14        28.2503   43.1264   17.7736 C.ar        1 F83       0.0218
     21 C15        28.1368   42.6831   19.1073 C.ar        1 F83      -0.0639
     22 C16        28.1284   43.6166   20.1626 C.ar        1 F83      -0.0448
     23 CL1        28.2368   42.0048   16.5012 Cl          1 F83      -0.0866
     24 H1         32.1191   55.2762   22.4033 H           1 F83       0.2097
     25 H2         32.2433   52.4870   22.0921 H           1 F83       0.0615
     26 H3         31.7437   53.7291   20.9513 H           1 F83       0.0615
     27 H4         29.9155   54.3892   22.7029 H           1 F83       0.0895
     28 H5         29.2234   52.7962   24.2118 H           1 F83       0.2032
     29 H6         30.8115   53.1374   24.5374 H           1 F83       0.2032
     30 H7         30.0428   50.8054   24.7794 H           1 F83       0.0964
     31 H8         31.5485   51.0704   23.9017 H           1 F83       0.0964
     32 H9         30.4329   48.5889   23.4412 H           1 F83       0.0559
     33 H10        28.5138   48.5439   19.6954 H           1 F83       0.0561
     34 H11        28.3927   50.9373   19.7182 H           1 F83       0.0538
     35 H12        29.4651   53.0502   20.5599 H           1 F83       0.0467
     36 H13        28.2599   52.9626   21.8337 H           1 F83       0.0467
     37 H14        27.3257   46.3053   21.0861 H           1 F83       0.2165
     38 H15        28.4212   46.4309   18.3461 H           1 F83       0.0483
     39 H16        28.4310   44.8329   16.5354 H           1 F83       0.0579
     40 H17        28.0552   41.6814   19.3167 H           1 F83       0.0579
     41 H18        28.0367   43.2865   21.1293 H           1 F83       0.0483
@<TRIPOS>BOND
     1     1     2   1
     2     2     3   1
     3     3     4   1
     4     3    12   1
     5     4     5   1
     6     5     6   1
     7     6     7  ar
     8     6    11  ar
     9     7     8  ar
    10     8     9  ar
    11     8    13   1
    12     9    10  ar
    13    10    11  ar
    14    11    12   1
    15    13    14   2
    16    13    15   2
    17    13    16  am
    18    16    17   1
    19    17    18  ar
    20    17    22  ar
    21    18    19  ar
    22    19    20  ar
    23    20    21  ar
    24    20    23   1
    25    21    22  ar
    26     1    24   1
    27     2    25   1
    28     2    26   1
    29     3    27   1
    30     4    28   1
    31     4    29   1
    32     5    30   1
    33     5    31   1
    34     7    32   1
    35     9    33   1
    36    10    34   1
    37    12    35   1
    38    12    36   1
    39    16    37   1
    40    18    38   1
    41    19    39   1
    42    21    40   1
    43    22    41   1
@<TRIPOS>SUBSTRUCTURE
     1  F83      2

