@<TRIPOS>MOLECULE
2obf_ligand_016
    41    43
SMALL
GAST_HUCK
****
This file was generated by PARSER (from files_GN.cpp)

@<TRIPOS>ATOM
      1 O1         27.0678   43.7280   19.9736 O.3         1 F83      -0.3893
      2 C1         28.1251   44.3355   20.7124 C.3         1 F83       0.0886
      3 C2         29.5601   43.9671   20.2100 C.3         1 F83       0.0107
      4 N1         30.2901   45.1167   19.6266 N.4         1 F83       0.2432
      5 C3         29.7822   45.6024   18.3215 C.3         1 F83      -0.0016
      6 C4         29.3857   44.5298   17.3761 C.ar        1 F83       0.0053
      7 C5         29.0713   44.8682   16.0396 C.ar        1 F83      -0.0347
      8 C6         28.7112   43.8724   15.1109 C.ar        1 F83       0.1007
      9 C7         28.6259   42.5316   15.5342 C.ar        1 F83      -0.0484
     10 C8         28.9199   42.1872   16.8657 C.ar        1 F83      -0.0646
     11 C9         29.2983   43.1780   17.7982 C.ar        1 F83      -0.0305
     12 C10        29.6273   42.7863   19.1970 C.3         1 F83       0.0239
     13 S1         28.3695   44.3021   13.4522 S.o2        1 F83       0.0850
     14 O2         28.7827   43.0861   12.5173 O.2         1 F83      -0.1456
     15 O3         29.2372   45.5781   13.0712 O.2         1 F83      -0.1456
     16 N2         26.7361   44.6894   13.2813 N.am        1 F83      -0.1875
     17 C11        26.2013   45.2953   12.1873 C.ar        1 F83       0.0630
     18 C12        26.6086   45.0342   10.8576 C.ar        1 F83      -0.0448
     19 C13        26.0161   45.7197    9.7775 C.ar        1 F83      -0.0639
     20 C14        25.0068   46.6718   10.0138 C.ar        1 F83       0.0218
     21 C15        24.5766   46.9171   11.3293 C.ar        1 F83      -0.0639
     22 C16        25.1645   46.2286   12.4063 C.ar        1 F83      -0.0448
     23 CL1        24.3145   47.5172    8.7229 Cl          1 F83      -0.0866
     24 H1         27.2121   43.9974   19.0421 H           1 F83       0.2097
     25 H2         28.0086   44.0163   21.7501 H           1 F83       0.0615
     26 H3         27.9730   45.4184   20.6869 H           1 F83       0.0615
     27 H4         30.1392   43.6707   21.0892 H           1 F83       0.0895
     28 H5         31.2630   44.8273   19.4927 H           1 F83       0.2032
     29 H6         30.2828   45.8920   20.2961 H           1 F83       0.2032
     30 H7         30.5820   46.1944   17.8714 H           1 F83       0.0964
     31 H8         28.9222   46.2542   18.4936 H           1 F83       0.0964
     32 H9         29.1211   45.8464   15.7403 H           1 F83       0.0559
     33 H10        28.3527   41.7930   14.8813 H           1 F83       0.0561
     34 H11        28.8587   41.2068   17.1496 H           1 F83       0.0538
     35 H12        28.9642   41.9841   19.5329 H           1 F83       0.0467
     36 H13        30.6484   42.3928   19.1899 H           1 F83       0.0467
     37 H14        26.2479   44.8005   14.1127 H           1 F83       0.2165
     38 H15        27.3220   44.3324   10.6561 H           1 F83       0.0483
     39 H16        26.3269   45.5212    8.8224 H           1 F83       0.0579
     40 H17        23.8415   47.6004   11.5145 H           1 F83       0.0579
     41 H18        24.8390   46.4292   13.3570 H           1 F83       0.0483
@<TRIPOS>BOND
     1     1     2   1
     2     2     3   1
     3     3     4   1
     4     3    12   1
     5     4     5   1
     6     5     6   1
     7     6     7  ar
     8     6    11  ar
     9     7     8  ar
    10     8     9  ar
    11     8    13   1
    12     9    10  ar
    13    10    11  ar
    14    11    12   1
    15    13    14   2
    16    13    15   2
    17    13    16  am
    18    16    17   1
    19    17    18  ar
    20    17    22  ar
    21    18    19  ar
    22    19    20  ar
    23    20    21  ar
    24    20    23   1
    25    21    22  ar
    26     1    24   1
    27     2    25   1
    28     2    26   1
    29     3    27   1
    30     4    28   1
    31     4    29   1
    32     5    30   1
    33     5    31   1
    34     7    32   1
    35     9    33   1
    36    10    34   1
    37    12    35   1
    38    12    36   1
    39    16    37   1
    40    18    38   1
    41    19    39   1
    42    21    40   1
    43    22    41   1
@<TRIPOS>SUBSTRUCTURE
     1  F83      2

