@<TRIPOS>MOLECULE
2obf_ligand_022
    41    43
SMALL
GAST_HUCK
****
This file was generated by PARSER (from files_GN.cpp)

@<TRIPOS>ATOM
      1 O1         26.1941   52.1869   16.4514 O.3         1 F83      -0.3893
      2 C1         27.0195   51.2136   17.0893 C.3         1 F83       0.0886
      3 C2         28.1148   51.8829   17.9821 C.3         1 F83       0.0107
      4 N1         29.4691   51.4937   17.5229 N.4         1 F83       0.2432
      5 C3         30.5730   52.1951   18.2196 C.3         1 F83      -0.0016
      6 C4         30.4223   52.2346   19.6973 C.ar        1 F83       0.0053
      7 C5         31.5046   52.6478   20.5071 C.ar        1 F83      -0.0347
      8 C6         31.3933   52.6547   21.9112 C.ar        1 F83       0.1007
      9 C7         30.2014   52.1910   22.5087 C.ar        1 F83      -0.0484
     10 C8         29.1016   51.8376   21.7130 C.ar        1 F83      -0.0646
     11 C9         29.1866   51.8824   20.3032 C.ar        1 F83      -0.0305
     12 C10        27.9857   51.5409   19.4984 C.3         1 F83       0.0239
     13 S1         32.7064   53.2745   22.8827 S.o2        1 F83       0.0850
     14 O2         33.6305   54.3439   22.1554 O.2         1 F83      -0.1456
     15 O3         33.6597   52.0113   23.0069 O.2         1 F83      -0.1456
     16 N2         32.4032   53.7377   24.4759 N.am        1 F83      -0.1875
     17 C11        31.3016   54.3905   24.9532 C.ar        1 F83       0.0630
     18 C12        31.0860   54.3539   26.3464 C.ar        1 F83      -0.0448
     19 C13        29.9214   54.9108   26.9106 C.ar        1 F83      -0.0639
     20 C14        28.9586   55.5216   26.0832 C.ar        1 F83       0.0218
     21 C15        29.1769   55.5902   24.6946 C.ar        1 F83      -0.0639
     22 C16        30.3485   55.0459   24.1377 C.ar        1 F83      -0.0448
     23 CL1        27.5445   56.1709   26.7543 Cl          1 F83      -0.0866
     24 H1         26.8000   52.6796   15.8598 H           1 F83       0.2097
     25 H2         27.4681   50.5992   16.3020 H           1 F83       0.0615
     26 H3         26.3642   50.5608   17.6707 H           1 F83       0.0615
     27 H4         28.0302   52.9710   17.8757 H           1 F83       0.0895
     28 H5         29.5489   51.6852   16.5212 H           1 F83       0.2032
     29 H6         29.5724   50.4887   17.6728 H           1 F83       0.2032
     30 H7         30.6411   53.2172   17.8411 H           1 F83       0.0964
     31 H8         31.5023   51.6790   17.9671 H           1 F83       0.0964
     32 H9         32.3805   52.9494   20.0666 H           1 F83       0.0559
     33 H10        30.1048   52.1460   23.5261 H           1 F83       0.0561
     34 H11        28.2214   51.5722   22.1687 H           1 F83       0.0538
     35 H12        27.7967   50.4733   19.6303 H           1 F83       0.0467
     36 H13        27.1327   52.0967   19.8964 H           1 F83       0.0467
     37 H14        33.0416   53.4229   25.1358 H           1 F83       0.2165
     38 H15        31.7628   53.8930   26.9642 H           1 F83       0.0483
     39 H16        29.7726   54.8556   27.9191 H           1 F83       0.0579
     40 H17        28.4765   56.0161   24.0797 H           1 F83       0.0579
     41 H18        30.4781   55.1086   23.1305 H           1 F83       0.0483
@<TRIPOS>BOND
     1     1     2   1
     2     2     3   1
     3     3     4   1
     4     3    12   1
     5     4     5   1
     6     5     6   1
     7     6     7  ar
     8     6    11  ar
     9     7     8  ar
    10     8     9  ar
    11     8    13   1
    12     9    10  ar
    13    10    11  ar
    14    11    12   1
    15    13    14   2
    16    13    15   2
    17    13    16  am
    18    16    17   1
    19    17    18  ar
    20    17    22  ar
    21    18    19  ar
    22    19    20  ar
    23    20    21  ar
    24    20    23   1
    25    21    22  ar
    26     1    24   1
    27     2    25   1
    28     2    26   1
    29     3    27   1
    30     4    28   1
    31     4    29   1
    32     5    30   1
    33     5    31   1
    34     7    32   1
    35     9    33   1
    36    10    34   1
    37    12    35   1
    38    12    36   1
    39    16    37   1
    40    18    38   1
    41    19    39   1
    42    21    40   1
    43    22    41   1
@<TRIPOS>SUBSTRUCTURE
     1  F83      2

