@<TRIPOS>MOLECULE
2obf_ligand_029
    41    43
SMALL
GAST_HUCK
****
This file was generated by PARSER (from files_GN.cpp)

@<TRIPOS>ATOM
      1 O1         25.6125   43.8967   14.1897 O.3         1 F83      -0.3893
      2 C1         26.5377   43.0237   14.8347 C.3         1 F83       0.0886
      3 C2         28.0062   43.4609   14.5600 C.3         1 F83       0.0107
      4 N1         28.9948   42.6047   15.2582 N.4         1 F83       0.2432
      5 C3         29.0052   42.7013   16.7383 C.3         1 F83      -0.0016
      6 C4         28.8492   44.0833   17.2569 C.ar        1 F83       0.0053
      7 C5         29.0198   44.3312   18.6389 C.ar        1 F83      -0.0347
      8 C6         28.8667   45.6334   19.1605 C.ar        1 F83       0.1007
      9 C7         28.5380   46.6809   18.2817 C.ar        1 F83      -0.0484
     10 C8         28.3980   46.4542   16.9078 C.ar        1 F83      -0.0646
     11 C9         28.5160   45.1532   16.3843 C.ar        1 F83      -0.0305
     12 C10        28.2954   44.9448   14.9288 C.3         1 F83       0.0239
     13 S1         29.0910   45.9483   20.8597 S.o2        1 F83       0.0850
     14 O2         30.4583   45.3525   21.4132 O.2         1 F83      -0.1456
     15 O3         27.9715   45.0916   21.5924 O.2         1 F83      -0.1456
     16 N2         28.8463   47.5286   21.4034 N.am        1 F83      -0.1875
     17 C11        29.5755   48.5909   20.9754 C.ar        1 F83       0.0630
     18 C12        30.9829   48.6081   21.0596 C.ar        1 F83      -0.0448
     19 C13        31.7184   49.7143   20.5982 C.ar        1 F83      -0.0639
     20 C14        31.0502   50.8041   20.0052 C.ar        1 F83       0.0218
     21 C15        29.6444   50.8088   19.9384 C.ar        1 F83      -0.0639
     22 C16        28.9118   49.7242   20.4498 C.ar        1 F83      -0.0448
     23 CL1        31.9337   52.0882   19.3437 Cl          1 F83      -0.0866
     24 H1         24.7258   43.5728   14.4572 H           1 F83       0.2097
     25 H2         26.3766   42.0132   14.4523 H           1 F83       0.0615
     26 H3         26.3239   43.0265   15.9060 H           1 F83       0.0615
     27 H4         28.1818   43.3404   13.4869 H           1 F83       0.0895
     28 H5         29.9267   42.8878   14.9442 H           1 F83       0.2032
     29 H6         28.8415   41.6295   14.9908 H           1 F83       0.2032
     30 H7         29.9631   42.3106   17.0810 H           1 F83       0.0964
     31 H8         28.2128   42.0718   17.1477 H           1 F83       0.0964
     32 H9         29.2573   43.5583   19.2671 H           1 F83       0.0559
     33 H10        28.3834   47.6243   18.6270 H           1 F83       0.0561
     34 H11        28.1715   47.2412   16.2959 H           1 F83       0.0538
     35 H12        27.4701   45.5722   14.5791 H           1 F83       0.0467
     36 H13        29.1976   45.2752   14.4086 H           1 F83       0.0467
     37 H14        28.0113   47.7144   21.8491 H           1 F83       0.2165
     38 H15        31.4701   47.8204   21.4693 H           1 F83       0.0483
     39 H16        32.7332   49.7093   20.6731 H           1 F83       0.0579
     40 H17        29.1464   51.5898   19.5022 H           1 F83       0.0579
     41 H18        27.8899   49.7404   20.3834 H           1 F83       0.0483
@<TRIPOS>BOND
     1     1     2   1
     2     2     3   1
     3     3     4   1
     4     3    12   1
     5     4     5   1
     6     5     6   1
     7     6     7  ar
     8     6    11  ar
     9     7     8  ar
    10     8     9  ar
    11     8    13   1
    12     9    10  ar
    13    10    11  ar
    14    11    12   1
    15    13    14   2
    16    13    15   2
    17    13    16  am
    18    16    17   1
    19    17    18  ar
    20    17    22  ar
    21    18    19  ar
    22    19    20  ar
    23    20    21  ar
    24    20    23   1
    25    21    22  ar
    26     1    24   1
    27     2    25   1
    28     2    26   1
    29     3    27   1
    30     4    28   1
    31     4    29   1
    32     5    30   1
    33     5    31   1
    34     7    32   1
    35     9    33   1
    36    10    34   1
    37    12    35   1
    38    12    36   1
    39    16    37   1
    40    18    38   1
    41    19    39   1
    42    21    40   1
    43    22    41   1
@<TRIPOS>SUBSTRUCTURE
     1  F83      2

