@<TRIPOS>MOLECULE
2obf_ligand_005
    41    43
SMALL
GAST_HUCK
****
This file was generated by PARSER (from files_GN.cpp)

@<TRIPOS>ATOM
      1 O1         29.9581   47.2495   20.4611 O.3         1 F83      -0.3893
      2 C1         28.9833   46.8712   21.4370 C.3         1 F83       0.0886
      3 C2         29.0729   45.3874   21.9270 C.3         1 F83       0.0107
      4 N1         30.3227   44.6843   21.5593 N.4         1 F83       0.2432
      5 C3         30.4734   44.2623   20.1463 C.3         1 F83      -0.0016
      6 C4         29.2170   43.7990   19.4994 C.ar        1 F83       0.0053
      7 C5         29.2663   43.2608   18.1932 C.ar        1 F83      -0.0347
      8 C6         28.0944   42.8037   17.5549 C.ar        1 F83       0.1007
      9 C7         26.8697   42.8512   18.2480 C.ar        1 F83      -0.0484
     10 C8         26.8105   43.3926   19.5412 C.ar        1 F83      -0.0646
     11 C9         27.9682   43.9055   20.1650 C.ar        1 F83      -0.0305
     12 C10        27.8655   44.4869   21.5305 C.3         1 F83       0.0239
     13 S1         28.1751   42.1758   15.9312 S.o2        1 F83       0.0850
     14 O2         26.7017   42.0276   15.3383 O.2         1 F83      -0.1456
     15 O3         28.7852   40.7055   15.9702 O.2         1 F83      -0.1456
     16 N2         29.1058   43.1305   14.9030 N.am        1 F83      -0.1875
     17 C11        28.5961   43.6165   13.7494 C.ar        1 F83       0.0630
     18 C12        28.6089   42.8194   12.5889 C.ar        1 F83      -0.0448
     19 C13        28.0246   43.2900   11.3975 C.ar        1 F83      -0.0639
     20 C14        27.3952   44.5473   11.3703 C.ar        1 F83       0.0218
     21 C15        27.3643   45.3377   12.5361 C.ar        1 F83      -0.0639
     22 C16        27.9721   44.8822   13.7189 C.ar        1 F83      -0.0448
     23 CL1        26.6709   45.1008    9.9460 Cl          1 F83      -0.0866
     24 H1         30.8311   47.1816   20.9134 H           1 F83       0.2097
     25 H2         28.0095   47.0707   20.9993 H           1 F83       0.0615
     26 H3         29.0987   47.5464   22.2879 H           1 F83       0.0615
     27 H4         29.0762   45.4269   23.0221 H           1 F83       0.0895
     28 H5         30.3518   43.8397   22.1351 H           1 F83       0.2032
     29 H6         31.1114   45.2758   21.8086 H           1 F83       0.2032
     30 H7         31.1997   43.4478   20.1346 H           1 F83       0.0964
     31 H8         30.8915   45.0857   19.5642 H           1 F83       0.0964
     32 H9         30.1660   43.1984   17.7063 H           1 F83       0.0559
     33 H10        26.0135   42.5073   17.8161 H           1 F83       0.0561
     34 H11        25.9106   43.4321   20.0120 H           1 F83       0.0538
     35 H12        26.9407   45.0592   21.6313 H           1 F83       0.0467
     36 H13        27.8063   43.6484   22.2285 H           1 F83       0.0467
     37 H14        29.9989   43.4041   15.1849 H           1 F83       0.2165
     38 H15        29.0395   41.8921   12.6058 H           1 F83       0.0483
     39 H16        28.0517   42.7067   10.5585 H           1 F83       0.0579
     40 H17        26.8845   46.2403   12.5317 H           1 F83       0.0579
     41 H18        27.9354   45.4620   14.5609 H           1 F83       0.0483
@<TRIPOS>BOND
     1     1     2   1
     2     2     3   1
     3     3     4   1
     4     3    12   1
     5     4     5   1
     6     5     6   1
     7     6     7  ar
     8     6    11  ar
     9     7     8  ar
    10     8     9  ar
    11     8    13   1
    12     9    10  ar
    13    10    11  ar
    14    11    12   1
    15    13    14   2
    16    13    15   2
    17    13    16  am
    18    16    17   1
    19    17    18  ar
    20    17    22  ar
    21    18    19  ar
    22    19    20  ar
    23    20    21  ar
    24    20    23   1
    25    21    22  ar
    26     1    24   1
    27     2    25   1
    28     2    26   1
    29     3    27   1
    30     4    28   1
    31     4    29   1
    32     5    30   1
    33     5    31   1
    34     7    32   1
    35     9    33   1
    36    10    34   1
    37    12    35   1
    38    12    36   1
    39    16    37   1
    40    18    38   1
    41    19    39   1
    42    21    40   1
    43    22    41   1
@<TRIPOS>SUBSTRUCTURE
     1  F83      2

