@<TRIPOS>MOLECULE
2obf_ligand_027
    41    43
SMALL
GAST_HUCK
****
This file was generated by PARSER (from files_GN.cpp)

@<TRIPOS>ATOM
      1 O1         26.9522   50.0830   17.1703 O.3         1 F83      -0.3893
      2 C1         26.6006   51.2291   16.3941 C.3         1 F83       0.0886
      3 C2         27.2486   52.5437   16.9107 C.3         1 F83       0.0107
      4 N1         28.7013   52.6299   16.6395 N.4         1 F83       0.2432
      5 C3         29.5759   51.7257   17.4096 C.3         1 F83      -0.0016
      6 C4         29.1825   51.5870   18.8357 C.ar        1 F83       0.0053
      7 C5         30.0166   50.8542   19.7018 C.ar        1 F83      -0.0347
      8 C6         29.6519   50.6285   21.0441 C.ar        1 F83       0.1007
      9 C7         28.4642   51.2043   21.5372 C.ar        1 F83      -0.0484
     10 C8         27.6241   51.9348   20.6849 C.ar        1 F83      -0.0646
     11 C9         27.9518   52.1060   19.3209 C.ar        1 F83      -0.0305
     12 C10        27.0136   52.8255   18.4179 C.3         1 F83       0.0239
     13 S1         30.6871   49.7298   22.1115 S.o2        1 F83       0.0850
     14 O2         31.6719   48.8580   21.2162 O.2         1 F83      -0.1456
     15 O3         29.8889   48.6814   22.9993 O.2         1 F83      -0.1456
     16 N2         31.6730   50.7288   23.0466 N.am        1 F83      -0.1875
     17 C11        31.1856   51.9226   23.4673 C.ar        1 F83       0.0630
     18 C12        31.5864   53.0982   22.7998 C.ar        1 F83      -0.0448
     19 C13        31.0208   54.3419   23.1479 C.ar        1 F83      -0.0639
     20 C14        30.0517   54.4153   24.1732 C.ar        1 F83       0.0218
     21 C15        29.6848   53.2517   24.8663 C.ar        1 F83      -0.0639
     22 C16        30.2513   52.0108   24.5259 C.ar        1 F83      -0.0448
     23 CL1        29.3328   55.9042   24.5499 Cl          1 F83      -0.0866
     24 H1         27.2580   49.4150   16.5207 H           1 F83       0.2097
     25 H2         25.5149   51.3295   16.4133 H           1 F83       0.0615
     26 H3         26.8903   51.0704   15.3539 H           1 F83       0.0615
     27 H4         26.7829   53.3564   16.3475 H           1 F83       0.0895
     28 H5         28.9941   53.5851   16.8409 H           1 F83       0.2032
     29 H6         28.8520   52.4708   15.6496 H           1 F83       0.2032
     30 H7         30.5901   52.1312   17.3481 H           1 F83       0.0964
     31 H8         29.5696   50.7425   16.9374 H           1 F83       0.0964
     32 H9         30.8860   50.4595   19.3416 H           1 F83       0.0559
     33 H10        28.2023   51.0834   22.5165 H           1 F83       0.0561
     34 H11        26.7495   52.3094   21.0615 H           1 F83       0.0538
     35 H12        25.9797   52.5755   18.6643 H           1 F83       0.0467
     36 H13        27.1296   53.8963   18.5894 H           1 F83       0.0467
     37 H14        32.6166   50.6983   22.8260 H           1 F83       0.2165
     38 H15        32.2539   53.0584   22.0201 H           1 F83       0.0483
     39 H16        31.2792   55.1796   22.6227 H           1 F83       0.0579
     40 H17        28.9852   53.2994   25.6086 H           1 F83       0.0579
     41 H18        29.9747   51.1710   25.0302 H           1 F83       0.0483
@<TRIPOS>BOND
     1     1     2   1
     2     2     3   1
     3     3     4   1
     4     3    12   1
     5     4     5   1
     6     5     6   1
     7     6     7  ar
     8     6    11  ar
     9     7     8  ar
    10     8     9  ar
    11     8    13   1
    12     9    10  ar
    13    10    11  ar
    14    11    12   1
    15    13    14   2
    16    13    15   2
    17    13    16  am
    18    16    17   1
    19    17    18  ar
    20    17    22  ar
    21    18    19  ar
    22    19    20  ar
    23    20    21  ar
    24    20    23   1
    25    21    22  ar
    26     1    24   1
    27     2    25   1
    28     2    26   1
    29     3    27   1
    30     4    28   1
    31     4    29   1
    32     5    30   1
    33     5    31   1
    34     7    32   1
    35     9    33   1
    36    10    34   1
    37    12    35   1
    38    12    36   1
    39    16    37   1
    40    18    38   1
    41    19    39   1
    42    21    40   1
    43    22    41   1
@<TRIPOS>SUBSTRUCTURE
     1  F83      2

