@<TRIPOS>MOLECULE
2obf_ligand_030
    41    43
SMALL
GAST_HUCK
****
This file was generated by PARSER (from files_GN.cpp)

@<TRIPOS>ATOM
      1 O1         27.5363   44.8255   17.0096 O.3         1 F83      -0.3893
      2 C1         27.6153   43.4846   16.5259 C.3         1 F83       0.0886
      3 C2         28.6567   42.6064   17.2817 C.3         1 F83       0.0107
      4 N1         28.0771   41.8911   18.4422 N.4         1 F83       0.2432
      5 C3         27.6720   42.7525   19.5743 C.3         1 F83      -0.0016
      6 C4         28.6663   43.8110   19.9092 C.ar        1 F83       0.0053
      7 C5         28.4963   44.5783   21.0847 C.ar        1 F83      -0.0347
      8 C6         29.4620   45.5368   21.4699 C.ar        1 F83       0.1007
      9 C7         30.6395   45.6609   20.7126 C.ar        1 F83      -0.0484
     10 C8         30.7851   44.9637   19.5034 C.ar        1 F83      -0.0646
     11 C9         29.7812   44.0648   19.0675 C.ar        1 F83      -0.0305
     12 C10        29.9302   43.3694   17.7573 C.3         1 F83       0.0239
     13 S1         29.1739   46.6138   22.8058 S.o2        1 F83       0.0850
     14 O2         29.5409   45.7318   24.0808 O.2         1 F83      -0.1456
     15 O3         27.6272   46.9207   23.0298 O.2         1 F83      -0.1456
     16 N2         30.1210   48.0085   22.9640 N.am        1 F83      -0.1875
     17 C11        29.8936   49.1356   22.2407 C.ar        1 F83       0.0630
     18 C12        29.1518   50.2011   22.7891 C.ar        1 F83      -0.0448
     19 C13        28.9655   51.3882   22.0630 C.ar        1 F83      -0.0639
     20 C14        29.5446   51.5407   20.7904 C.ar        1 F83       0.0218
     21 C15        30.3278   50.4959   20.2493 C.ar        1 F83      -0.0639
     22 C16        30.5059   49.3035   20.9803 C.ar        1 F83      -0.0448
     23 CL1        29.3307   52.9823   19.9218 Cl          1 F83      -0.0866
     24 H1         28.0574   45.3637   16.3741 H           1 F83       0.2097
     25 H2         27.8641   43.5188   15.4617 H           1 F83       0.0615
     26 H3         26.6236   43.0355   16.6169 H           1 F83       0.0615
     27 H4         28.9763   41.8314   16.5829 H           1 F83       0.0895
     28 H5         28.7862   41.2348   18.7833 H           1 F83       0.2032
     29 H6         27.2687   41.3476   18.1335 H           1 F83       0.2032
     30 H7         27.5575   42.0973   20.4345 H           1 F83       0.0964
     31 H8         26.7049   43.2047   19.3586 H           1 F83       0.0964
     32 H9         27.6563   44.4500   21.6581 H           1 F83       0.0559
     33 H10        31.3734   46.3094   21.0055 H           1 F83       0.0561
     34 H11        31.6176   45.1444   18.9359 H           1 F83       0.0538
     35 H12        30.2155   44.0891   16.9845 H           1 F83       0.0467
     36 H13        30.7503   42.6570   17.8740 H           1 F83       0.0467
     37 H14        30.6220   48.1218   23.7997 H           1 F83       0.2165
     38 H15        28.7339   50.1141   23.7217 H           1 F83       0.0483
     39 H16        28.4168   52.1517   22.4639 H           1 F83       0.0579
     40 H17        30.7757   50.6000   19.3371 H           1 F83       0.0579
     41 H18        31.1048   48.5707   20.6020 H           1 F83       0.0483
@<TRIPOS>BOND
     1     1     2   1
     2     2     3   1
     3     3     4   1
     4     3    12   1
     5     4     5   1
     6     5     6   1
     7     6     7  ar
     8     6    11  ar
     9     7     8  ar
    10     8     9  ar
    11     8    13   1
    12     9    10  ar
    13    10    11  ar
    14    11    12   1
    15    13    14   2
    16    13    15   2
    17    13    16  am
    18    16    17   1
    19    17    18  ar
    20    17    22  ar
    21    18    19  ar
    22    19    20  ar
    23    20    21  ar
    24    20    23   1
    25    21    22  ar
    26     1    24   1
    27     2    25   1
    28     2    26   1
    29     3    27   1
    30     4    28   1
    31     4    29   1
    32     5    30   1
    33     5    31   1
    34     7    32   1
    35     9    33   1
    36    10    34   1
    37    12    35   1
    38    12    36   1
    39    16    37   1
    40    18    38   1
    41    19    39   1
    42    21    40   1
    43    22    41   1
@<TRIPOS>SUBSTRUCTURE
     1  F83      2

