@<TRIPOS>MOLECULE
2obf_ligand_007
    41    43
SMALL
GAST_HUCK
****
This file was generated by PARSER (from files_GN.cpp)

@<TRIPOS>ATOM
      1 O1         29.3328   42.6765   13.2383 O.3         1 F83      -0.3893
      2 C1         27.9598   42.6318   12.8649 C.3         1 F83       0.0886
      3 C2         26.9789   43.3064   13.8714 C.3         1 F83       0.0107
      4 N1         27.2986   44.7224   14.1776 N.4         1 F83       0.2432
      5 C3         28.4329   44.9675   15.1030 C.3         1 F83      -0.0016
      6 C4         28.6045   43.9604   16.1887 C.ar        1 F83       0.0053
      7 C5         29.5829   44.1749   17.1873 C.ar        1 F83      -0.0347
      8 C6         29.7679   43.2479   18.2342 C.ar        1 F83       0.1007
      9 C7         28.9455   42.1061   18.2952 C.ar        1 F83      -0.0484
     10 C8         27.9800   41.8752   17.3009 C.ar        1 F83      -0.0646
     11 C9         27.8149   42.7845   16.2285 C.ar        1 F83      -0.0305
     12 C10        26.7746   42.5218   15.2012 C.3         1 F83       0.0239
     13 S1         30.9642   43.5539   19.4645 S.o2        1 F83       0.0850
     14 O2         32.2610   44.2568   18.8849 O.2         1 F83      -0.1456
     15 O3         31.5678   42.1746   19.9758 O.2         1 F83      -0.1456
     16 N2         30.3133   44.1970   20.8904 N.am        1 F83      -0.1875
     17 C11        30.1121   45.5116   21.1748 C.ar        1 F83       0.0630
     18 C12        30.9437   46.5516   20.7128 C.ar        1 F83      -0.0448
     19 C13        30.7387   47.8847   21.1197 C.ar        1 F83      -0.0639
     20 C14        29.6779   48.1976   21.9874 C.ar        1 F83       0.0218
     21 C15        28.8164   47.1770   22.4270 C.ar        1 F83      -0.0639
     22 C16        29.0423   45.8403   22.0413 C.ar        1 F83      -0.0448
     23 CL1        29.4699   49.7978   22.5045 Cl          1 F83      -0.0866
     24 H1         29.6926   43.4850   12.8173 H           1 F83       0.2097
     25 H2         27.6905   41.5797   12.7466 H           1 F83       0.0615
     26 H3         27.8597   43.1048   11.8857 H           1 F83       0.0615
     27 H4         26.0072   43.3193   13.3694 H           1 F83       0.0895
     28 H5         26.4652   45.1319   14.6054 H           1 F83       0.2032
     29 H6         27.4750   45.2227   13.3029 H           1 F83       0.2032
     30 H7         28.2706   45.9506   15.5511 H           1 F83       0.0964
     31 H8         29.3516   45.0186   14.5180 H           1 F83       0.0964
     32 H9         30.1550   45.0206   17.1545 H           1 F83       0.0559
     33 H10        29.0364   41.4363   19.0644 H           1 F83       0.0561
     34 H11        27.3936   41.0383   17.3643 H           1 F83       0.0538
     35 H12        26.7250   41.4533   14.9810 H           1 F83       0.0467
     36 H13        25.8126   42.8054   15.6379 H           1 F83       0.0467
     37 H14        29.8826   43.5480   21.4722 H           1 F83       0.2165
     38 H15        31.7424   46.3627   20.1121 H           1 F83       0.0483
     39 H16        31.3769   48.6169   20.8001 H           1 F83       0.0579
     40 H17        28.0249   47.3946   23.0373 H           1 F83       0.0579
     41 H18        28.4177   45.1103   22.3890 H           1 F83       0.0483
@<TRIPOS>BOND
     1     1     2   1
     2     2     3   1
     3     3     4   1
     4     3    12   1
     5     4     5   1
     6     5     6   1
     7     6     7  ar
     8     6    11  ar
     9     7     8  ar
    10     8     9  ar
    11     8    13   1
    12     9    10  ar
    13    10    11  ar
    14    11    12   1
    15    13    14   2
    16    13    15   2
    17    13    16  am
    18    16    17   1
    19    17    18  ar
    20    17    22  ar
    21    18    19  ar
    22    19    20  ar
    23    20    21  ar
    24    20    23   1
    25    21    22  ar
    26     1    24   1
    27     2    25   1
    28     2    26   1
    29     3    27   1
    30     4    28   1
    31     4    29   1
    32     5    30   1
    33     5    31   1
    34     7    32   1
    35     9    33   1
    36    10    34   1
    37    12    35   1
    38    12    36   1
    39    16    37   1
    40    18    38   1
    41    19    39   1
    42    21    40   1
    43    22    41   1
@<TRIPOS>SUBSTRUCTURE
     1  F83      2

