@<TRIPOS>MOLECULE
2ole_ligand_073
    55    57
SMALL
GAST_HUCK
****
This file was generated by PARSER (from files_GN.cpp)

@<TRIPOS>ATOM
      1 CAY        -3.5174    8.0719   -8.7305 C.ar        1 KR2      -0.0419
      2 CBC        -2.7947    9.2571   -8.9590 C.ar        1 KR2      -0.0562
      3 CBB        -1.8138    9.2997   -9.9652 C.ar        1 KR2      -0.0575
      4 CBA        -1.5602    8.1592  -10.7477 C.ar        1 KR2      -0.0562
      5 CAZ        -2.2913    6.9778  -10.5271 C.ar        1 KR2      -0.0419
      6 CAX        -3.2733    6.9163   -9.5064 C.ar        1 KR2       0.0519
      7 CAW        -4.0200    5.7584   -9.3322 C.2         1 KR2       0.2286
      8 OAA        -4.7487    5.4779  -10.2813 O.2         1 KR2      -0.3825
      9 NAR        -3.9038    4.9199   -8.2849 N.am        1 KR2      -0.1656
     10 CAV        -4.5409    3.6159   -8.2570 C.3         1 KR2       0.0587
     11 CDD        -3.7683    2.6016   -9.1410 C.3         1 KR2      -0.0303
     12 CNN        -2.3031    2.3629   -8.6876 C.3         1 KR2      -0.0492
     13 CAT        -1.4112    3.6379   -8.6464 C.3         1 KR2      -0.0302
     14 CAS        -1.6978    4.5694   -7.4340 C.3         1 KR2       0.0592
     15 NAQ        -3.0287    5.1497   -7.3024 N.am        1 KR2      -0.1666
     16 CAO        -3.4317    5.8188   -6.2039 C.2         1 KR2       0.2052
     17 OAP        -4.5908    6.2117   -6.1459 O.2         1 KR2      -0.3947
     18 CAN        -2.5728    6.1469   -5.0596 C.3         1 KR2       0.0838
     19 CAL        -3.2522    6.4601   -3.6864 C.3         1 KR2       0.0010
     20 NAM        -2.1891    6.6045   -2.6679 N.4         1 KR2       0.2238
     21 CAK        -4.3654    5.4754   -3.1642 C.3         1 KR2       0.0243
     22 CAG        -4.4551    4.1030   -3.7629 C.ar        1 KR2      -0.0094
     23 CAH        -5.6364    3.6901   -4.4301 C.ar        1 KR2      -0.0298
     24 CAC        -5.7583    2.3926   -4.9618 C.ar        1 KR2       0.1544
     25 FAB        -6.8774    2.0280   -5.5310 F           1 KR2      -0.1895
     26 CAD        -4.6763    1.4974   -4.8801 C.ar        1 KR2       0.1560
     27 FAI        -4.7650    0.2940   -5.3806 F           1 KR2      -0.1911
     28 CAE        -3.4946    1.8922   -4.2291 C.ar        1 KR2      -0.0030
     29 CAF        -3.3964    3.1692   -3.6436 C.ar        1 KR2       0.1274
     30 FAJ        -2.3063    3.4615   -2.9859 F           1 KR2      -0.1934
     31 H1         -4.2463    8.0728   -8.0144 H           1 KR2       0.0669
     32 H2         -2.9906   10.0925   -8.4037 H           1 KR2       0.0629
     33 H3         -1.2897   10.1620  -10.1381 H           1 KR2       0.0653
     34 H4         -0.8505    8.1907  -11.4857 H           1 KR2       0.0629
     35 H5         -2.1005    6.1638  -11.1167 H           1 KR2       0.0669
     36 H6         -5.5749    3.6941   -8.6047 H           1 KR2       0.0545
     37 H7         -4.5980    3.2207   -7.2400 H           1 KR2       0.0545
     38 H8         -3.7739    2.9375  -10.1817 H           1 KR2       0.0285
     39 H9         -4.2997    1.6467   -9.1130 H           1 KR2       0.0285
     40 H10        -1.8517    1.6599   -9.3913 H           1 KR2       0.0267
     41 H11        -2.3000    1.8833   -7.7028 H           1 KR2       0.0267
     42 H12        -1.5190    4.1937   -9.5811 H           1 KR2       0.0285
     43 H13        -0.3654    3.3225   -8.5810 H           1 KR2       0.0285
     44 H14        -0.9776    5.3930   -7.4606 H           1 KR2       0.0546
     45 H15        -1.4797    3.9635   -6.5506 H           1 KR2       0.0546
     46 H16        -1.9598    7.0025   -5.3544 H           1 KR2       0.0561
     47 H17        -1.8880    5.3253   -4.8715 H           1 KR2       0.0561
     48 H18        -3.7040    7.4535   -3.7749 H           1 KR2       0.0898
     49 H19        -2.6034    6.7022   -1.7372 H           1 KR2       0.2000
     50 H20        -1.6315    7.4397   -2.8570 H           1 KR2       0.2000
     51 H21        -1.5739    5.7844   -2.6777 H           1 KR2       0.2000
     52 H22        -5.3260    5.9853   -3.2879 H           1 KR2       0.0467
     53 H23        -4.2613    5.3399   -2.0842 H           1 KR2       0.0467
     54 H24        -6.4299    4.3306   -4.5206 H           1 KR2       0.0522
     55 H25        -2.7123    1.2391   -4.1627 H           1 KR2       0.0562
@<TRIPOS>BOND
     1     1     2  ar
     2     1     6  ar
     3     2     3  ar
     4     3     4  ar
     5     4     5  ar
     6     5     6  ar
     7     6     7   1
     8     7     8   2
     9     7     9  am
    10     9    10   1
    11     9    15   1
    12    10    11   1
    13    11    12   1
    14    12    13   1
    15    13    14   1
    16    14    15   1
    17    15    16  am
    18    16    17   2
    19    16    18   1
    20    18    19   1
    21    19    20   1
    22    19    21   1
    23    21    22   1
    24    22    23  ar
    25    22    29  ar
    26    23    24  ar
    27    24    25   1
    28    24    26  ar
    29    26    27   1
    30    26    28  ar
    31    28    29  ar
    32    29    30   1
    33     1    31   1
    34     2    32   1
    35     3    33   1
    36     4    34   1
    37     5    35   1
    38    10    36   1
    39    10    37   1
    40    11    38   1
    41    11    39   1
    42    12    40   1
    43    12    41   1
    44    13    42   1
    45    13    43   1
    46    14    44   1
    47    14    45   1
    48    18    46   1
    49    18    47   1
    50    19    48   1
    51    20    49   1
    52    20    50   1
    53    20    51   1
    54    21    52   1
    55    21    53   1
    56    23    54   1
    57    28    55   1
@<TRIPOS>SUBSTRUCTURE
     1  KR2      1

