@<TRIPOS>MOLECULE
2ole_ligand_002
    55    57
SMALL
GAST_HUCK
****
This file was generated by PARSER (from files_GN.cpp)

@<TRIPOS>ATOM
      1 CAY        -0.3789    1.9375   -8.0752 C.ar        1 KR2      -0.0419
      2 CBC        -0.2102    0.6059   -8.4977 C.ar        1 KR2      -0.0562
      3 CBB        -0.9930   -0.4178   -7.9337 C.ar        1 KR2      -0.0575
      4 CBA        -1.9375   -0.1123   -6.9379 C.ar        1 KR2      -0.0562
      5 CAZ        -2.1032    1.2182   -6.5104 C.ar        1 KR2      -0.0419
      6 CAX        -1.3410    2.2617   -7.0919 C.ar        1 KR2       0.0519
      7 CAW        -1.5046    3.5723   -6.6658 C.2         1 KR2       0.2286
      8 OAA        -0.5439    4.0312   -6.0549 O.2         1 KR2      -0.3825
      9 NAR        -2.6168    4.3175   -6.8309 N.am        1 KR2      -0.1656
     10 CAV        -3.7510    3.8632   -7.6217 C.3         1 KR2       0.0587
     11 CDD        -4.9751    4.8122   -7.7768 C.3         1 KR2      -0.0303
     12 CNN        -4.6620    6.1637   -8.4716 C.3         1 KR2      -0.0492
     13 CAT        -3.9213    7.1910   -7.5757 C.3         1 KR2      -0.0302
     14 CAS        -2.5648    6.6733   -7.0336 C.3         1 KR2       0.0592
     15 NAQ        -2.7192    5.4954   -6.2002 N.am        1 KR2      -0.1666
     16 CAO        -3.0807    5.5019   -4.8988 C.2         1 KR2       0.2052
     17 OAP        -3.1869    4.4122   -4.3422 O.2         1 KR2      -0.3947
     18 CAN        -3.5616    6.6543   -4.1252 C.3         1 KR2       0.0838
     19 CAL        -3.3872    6.6417   -2.5672 C.3         1 KR2       0.0010
     20 NAM        -1.9450    6.6518   -2.2440 N.4         1 KR2       0.2238
     21 CAK        -4.2512    5.5880   -1.7756 C.3         1 KR2       0.0243
     22 CAG        -3.5600    4.9965   -0.5919 C.ar        1 KR2      -0.0094
     23 CAH        -3.7728    5.5277    0.7032 C.ar        1 KR2      -0.0298
     24 CAC        -2.9971    5.0987    1.7962 C.ar        1 KR2       0.1544
     25 FAB        -3.1924    5.6384    2.9697 F           1 KR2      -0.1895
     26 CAD        -1.9930    4.1281    1.6085 C.ar        1 KR2       0.1560
     27 FAI        -1.2182    3.7583    2.5925 F           1 KR2      -0.1911
     28 CAE        -1.8043    3.5560    0.3389 C.ar        1 KR2      -0.0030
     29 CAF        -2.5870    3.9763   -0.7515 C.ar        1 KR2       0.1274
     30 FAJ        -2.3574    3.4191   -1.9099 F           1 KR2      -0.1934
     31 H1          0.1968    2.6693   -8.4972 H           1 KR2       0.0669
     32 H2          0.4814    0.3814   -9.2141 H           1 KR2       0.0629
     33 H3         -0.8738   -1.3848   -8.2456 H           1 KR2       0.0653
     34 H4         -2.4978   -0.8589   -6.5182 H           1 KR2       0.0629
     35 H5         -2.7808    1.4149   -5.7655 H           1 KR2       0.0669
     36 H6         -4.1404    2.9464   -7.1746 H           1 KR2       0.0545
     37 H7         -3.3924    3.6168   -8.6242 H           1 KR2       0.0545
     38 H8         -5.4204    4.9984   -6.7959 H           1 KR2       0.0285
     39 H9         -5.7256    4.2921   -8.3776 H           1 KR2       0.0285
     40 H10        -5.6089    6.6155   -8.7768 H           1 KR2       0.0267
     41 H11        -4.0805    5.9848   -9.3807 H           1 KR2       0.0267
     42 H12        -4.5671    7.4728   -6.7399 H           1 KR2       0.0285
     43 H13        -3.7414    8.0957   -8.1636 H           1 KR2       0.0285
     44 H14        -2.0468    7.4725   -6.4973 H           1 KR2       0.0546
     45 H15        -1.9258    6.4393   -7.8930 H           1 KR2       0.0546
     46 H16        -4.6254    6.7707   -4.3429 H           1 KR2       0.0561
     47 H17        -3.0701    7.5621   -4.4803 H           1 KR2       0.0561
     48 H18        -3.7231    7.6181   -2.2139 H           1 KR2       0.0898
     49 H19        -1.8241    6.6557   -1.2289 H           1 KR2       0.2000
     50 H20        -1.5170    7.5032   -2.6133 H           1 KR2       0.2000
     51 H21        -1.4720    5.8330   -2.6340 H           1 KR2       0.2000
     52 H22        -4.5887    4.7768   -2.4220 H           1 KR2       0.0467
     53 H23        -5.1771    6.0794   -1.4521 H           1 KR2       0.0467
     54 H24        -4.4741    6.2587    0.8483 H           1 KR2       0.0522
     55 H25        -1.0815    2.8446    0.2002 H           1 KR2       0.0562
@<TRIPOS>BOND
     1     1     2  ar
     2     1     6  ar
     3     2     3  ar
     4     3     4  ar
     5     4     5  ar
     6     5     6  ar
     7     6     7   1
     8     7     8   2
     9     7     9  am
    10     9    10   1
    11     9    15   1
    12    10    11   1
    13    11    12   1
    14    12    13   1
    15    13    14   1
    16    14    15   1
    17    15    16  am
    18    16    17   2
    19    16    18   1
    20    18    19   1
    21    19    20   1
    22    19    21   1
    23    21    22   1
    24    22    23  ar
    25    22    29  ar
    26    23    24  ar
    27    24    25   1
    28    24    26  ar
    29    26    27   1
    30    26    28  ar
    31    28    29  ar
    32    29    30   1
    33     1    31   1
    34     2    32   1
    35     3    33   1
    36     4    34   1
    37     5    35   1
    38    10    36   1
    39    10    37   1
    40    11    38   1
    41    11    39   1
    42    12    40   1
    43    12    41   1
    44    13    42   1
    45    13    43   1
    46    14    44   1
    47    14    45   1
    48    18    46   1
    49    18    47   1
    50    19    48   1
    51    20    49   1
    52    20    50   1
    53    20    51   1
    54    21    52   1
    55    21    53   1
    56    23    54   1
    57    28    55   1
@<TRIPOS>SUBSTRUCTURE
     1  KR2      1

