@<TRIPOS>MOLECULE
2ole_ligand_061
    55    57
SMALL
GAST_HUCK
****
This file was generated by PARSER (from files_GN.cpp)

@<TRIPOS>ATOM
      1 CAY        -6.7705    3.9135   -8.0174 C.ar        1 KR2      -0.0419
      2 CBC        -7.9302    3.8379   -8.8107 C.ar        1 KR2      -0.0562
      3 CBB        -7.9026    4.2870  -10.1436 C.ar        1 KR2      -0.0575
      4 CBA        -6.7116    4.8147  -10.6804 C.ar        1 KR2      -0.0562
      5 CAZ        -5.5517    4.8878   -9.8875 C.ar        1 KR2      -0.0419
      6 CAX        -5.5694    4.4444   -8.5439 C.ar        1 KR2       0.0519
      7 CAW        -4.4328    4.4988   -7.7503 C.2         1 KR2       0.2286
      8 OAA        -3.9114    3.4101   -7.5369 O.2         1 KR2      -0.3825
      9 NAR        -3.9373    5.6159   -7.1740 N.am        1 KR2      -0.1656
     10 CAV        -4.5331    6.9253   -7.4104 C.3         1 KR2       0.0587
     11 CDD        -3.6981    8.1603   -6.9815 C.3         1 KR2      -0.0303
     12 CNN        -2.3220    8.2641   -7.6983 C.3         1 KR2      -0.0492
     13 CAT        -1.5457    6.9266   -7.8657 C.3         1 KR2      -0.0302
     14 CAS        -1.6309    6.0230   -6.6057 C.3         1 KR2       0.0592
     15 NAQ        -2.9548    5.5184   -6.2591 N.am        1 KR2      -0.1666
     16 CAO        -3.2356    4.9883   -5.0474 C.2         1 KR2       0.2052
     17 OAP        -4.3939    4.6259   -4.8010 O.2         1 KR2      -0.3947
     18 CAN        -2.3108    4.7369   -3.9408 C.3         1 KR2       0.0838
     19 CAL        -2.6942    5.4955   -2.6127 C.3         1 KR2       0.0010
     20 NAM        -1.7516    6.6078   -2.3644 N.4         1 KR2       0.2238
     21 CAK        -2.7621    4.6131   -1.3189 C.3         1 KR2       0.0243
     22 CAG        -3.4663    3.2941   -1.3975 C.ar        1 KR2      -0.0094
     23 CAH        -2.9278    2.1677   -0.7272 C.ar        1 KR2      -0.0298
     24 CAC        -3.5233    0.8971   -0.8231 C.ar        1 KR2       0.1544
     25 FAB        -3.0198   -0.1110   -0.1629 F           1 KR2      -0.1895
     26 CAD        -4.6653    0.7223   -1.6226 C.ar        1 KR2       0.1560
     27 FAI        -5.2042   -0.4594   -1.7581 F           1 KR2      -0.1911
     28 CAE        -5.2372    1.8295   -2.2739 C.ar        1 KR2      -0.0030
     29 CAF        -4.6716    3.1124   -2.1185 C.ar        1 KR2       0.1274
     30 FAJ        -5.2674    4.1280   -2.6903 F           1 KR2      -0.1934
     31 H1         -6.8104    3.5796   -7.0497 H           1 KR2       0.0669
     32 H2         -8.7952    3.4559   -8.4203 H           1 KR2       0.0629
     33 H3         -8.7442    4.2335  -10.7196 H           1 KR2       0.0653
     34 H4         -6.6935    5.1393  -11.6499 H           1 KR2       0.0629
     35 H5         -4.6930    5.2636  -10.3021 H           1 KR2       0.0669
     36 H6         -5.4803    6.9481   -6.8728 H           1 KR2       0.0545
     37 H7         -4.7501    7.0621   -8.4718 H           1 KR2       0.0545
     38 H8         -3.5452    8.1241   -5.9004 H           1 KR2       0.0285
     39 H9         -4.2650    9.0687   -7.1927 H           1 KR2       0.0285
     40 H10        -1.7020    8.9579   -7.1278 H           1 KR2       0.0267
     41 H11        -2.4667    8.6976   -8.6917 H           1 KR2       0.0267
     42 H12        -0.4972    7.1591   -8.0777 H           1 KR2       0.0285
     43 H13        -1.9244    6.3786   -8.7318 H           1 KR2       0.0285
     44 H14        -1.2477    6.6263   -5.7793 H           1 KR2       0.0546
     45 H15        -0.9559    5.1721   -6.7426 H           1 KR2       0.0546
     46 H16        -1.2838    4.9791   -4.2147 H           1 KR2       0.0561
     47 H17        -2.3015    3.6560   -3.7692 H           1 KR2       0.0561
     48 H18        -3.6690    5.9787   -2.7207 H           1 KR2       0.0898
     49 H19        -1.8938    6.9866   -1.4206 H           1 KR2       0.2000
     50 H20        -1.8605    7.3546   -3.0570 H           1 KR2       0.2000
     51 H21        -0.8045    6.2429   -2.4227 H           1 KR2       0.2000
     52 H22        -3.2609    5.1966   -0.5386 H           1 KR2       0.0467
     53 H23        -1.7311    4.4504   -0.9845 H           1 KR2       0.0467
     54 H24        -2.0832    2.2697   -0.1568 H           1 KR2       0.0522
     55 H25        -6.0614    1.6972   -2.8616 H           1 KR2       0.0562
@<TRIPOS>BOND
     1     1     2  ar
     2     1     6  ar
     3     2     3  ar
     4     3     4  ar
     5     4     5  ar
     6     5     6  ar
     7     6     7   1
     8     7     8   2
     9     7     9  am
    10     9    10   1
    11     9    15   1
    12    10    11   1
    13    11    12   1
    14    12    13   1
    15    13    14   1
    16    14    15   1
    17    15    16  am
    18    16    17   2
    19    16    18   1
    20    18    19   1
    21    19    20   1
    22    19    21   1
    23    21    22   1
    24    22    23  ar
    25    22    29  ar
    26    23    24  ar
    27    24    25   1
    28    24    26  ar
    29    26    27   1
    30    26    28  ar
    31    28    29  ar
    32    29    30   1
    33     1    31   1
    34     2    32   1
    35     3    33   1
    36     4    34   1
    37     5    35   1
    38    10    36   1
    39    10    37   1
    40    11    38   1
    41    11    39   1
    42    12    40   1
    43    12    41   1
    44    13    42   1
    45    13    43   1
    46    14    44   1
    47    14    45   1
    48    18    46   1
    49    18    47   1
    50    19    48   1
    51    20    49   1
    52    20    50   1
    53    20    51   1
    54    21    52   1
    55    21    53   1
    56    23    54   1
    57    28    55   1
@<TRIPOS>SUBSTRUCTURE
     1  KR2      1

