@<TRIPOS>MOLECULE
2ole_ligand_066
    55    57
SMALL
GAST_HUCK
****
This file was generated by PARSER (from files_GN.cpp)

@<TRIPOS>ATOM
      1 CAY        -6.9915    4.4632   -8.7535 C.ar        1 KR2      -0.0419
      2 CBC        -8.0636    3.9688   -9.5225 C.ar        1 KR2      -0.0562
      3 CBB        -8.0536    4.1211  -10.9211 C.ar        1 KR2      -0.0575
      4 CBA        -6.9821    4.7824  -11.5466 C.ar        1 KR2      -0.0562
      5 CAZ        -5.9145    5.2820  -10.7798 C.ar        1 KR2      -0.0419
      6 CAX        -5.8948    5.1084   -9.3734 C.ar        1 KR2       0.0519
      7 CAW        -4.8241    5.5821   -8.6194 C.2         1 KR2       0.2286
      8 OAA        -4.5495    6.7658   -8.7986 O.2         1 KR2      -0.3825
      9 NAR        -4.0872    4.8511   -7.7565 N.am        1 KR2      -0.1656
     10 CAV        -4.2151    3.4020   -7.6715 C.3         1 KR2       0.0587
     11 CDD        -3.1628    2.6041   -6.8482 C.3         1 KR2      -0.0303
     12 CNN        -1.7052    2.7465   -7.3543 C.3         1 KR2      -0.0492
     13 CAT        -1.0366    4.0827   -6.9539 C.3         1 KR2      -0.0302
     14 CAS        -1.7823    5.3380   -7.4719 C.3         1 KR2       0.0592
     15 NAQ        -3.1520    5.4493   -6.9987 N.am        1 KR2      -0.1666
     16 CAO        -3.5213    6.1591   -5.9158 C.2         1 KR2       0.2052
     17 OAP        -4.6902    6.5416   -5.8282 O.2         1 KR2      -0.3947
     18 CAN        -2.6399    6.5910   -4.8274 C.3         1 KR2       0.0838
     19 CAL        -3.1381    6.3846   -3.3567 C.3         1 KR2       0.0010
     20 NAM        -1.9857    6.6319   -2.4597 N.4         1 KR2       0.2238
     21 CAK        -3.7568    4.9977   -2.9718 C.3         1 KR2       0.0243
     22 CAG        -4.9854    4.5487   -3.7004 C.ar        1 KR2      -0.0094
     23 CAH        -6.0107    5.4706   -4.0183 C.ar        1 KR2      -0.0298
     24 CAC        -7.1498    5.0778   -4.7564 C.ar        1 KR2       0.1544
     25 FAB        -8.0656    5.9619   -5.0518 F           1 KR2      -0.1895
     26 CAD        -7.3045    3.7352   -5.1429 C.ar        1 KR2       0.1560
     27 FAI        -8.3543    3.3500   -5.8184 F           1 KR2      -0.1911
     28 CAE        -6.3343    2.7868   -4.7667 C.ar        1 KR2      -0.0030
     29 CAF        -5.1928    3.1836   -4.0433 C.ar        1 KR2       0.1274
     30 FAJ        -4.3580    2.2470   -3.6746 F           1 KR2      -0.1934
     31 H1         -7.0333    4.3613   -7.7362 H           1 KR2       0.0669
     32 H2         -8.8477    3.4998   -9.0664 H           1 KR2       0.0629
     33 H3         -8.8252    3.7561  -11.4813 H           1 KR2       0.0653
     34 H4         -6.9737    4.8944  -12.5627 H           1 KR2       0.0629
     35 H5         -5.1408    5.7557  -11.2534 H           1 KR2       0.0669
     36 H6         -4.2015    2.9868   -8.6852 H           1 KR2       0.0545
     37 H7         -5.1898    3.1678   -7.2372 H           1 KR2       0.0545
     38 H8         -3.4361    1.5445   -6.8891 H           1 KR2       0.0285
     39 H9         -3.2116    2.9104   -5.8043 H           1 KR2       0.0285
     40 H10        -1.6760    2.6299   -8.4420 H           1 KR2       0.0267
     41 H11        -1.1091    1.9377   -6.9224 H           1 KR2       0.0267
     42 H12        -0.0193    4.0943   -7.3552 H           1 KR2       0.0285
     43 H13        -0.9484    4.1199   -5.8678 H           1 KR2       0.0285
     44 H14        -1.7735    5.3133   -8.5660 H           1 KR2       0.0546
     45 H15        -1.2110    6.2312   -7.2012 H           1 KR2       0.0546
     46 H16        -2.4642    7.6605   -4.9771 H           1 KR2       0.0561
     47 H17        -1.6731    6.0992   -4.9165 H           1 KR2       0.0561
     48 H18        -3.8625    7.1685   -3.1348 H           1 KR2       0.0898
     49 H19        -2.2629    6.5762   -1.4761 H           1 KR2       0.2000
     50 H20        -1.5953    7.5564   -2.6393 H           1 KR2       0.2000
     51 H21        -1.2603    5.9310   -2.6344 H           1 KR2       0.2000
     52 H22        -4.0310    5.0356   -1.9150 H           1 KR2       0.0467
     53 H23        -2.9593    4.2556   -3.0595 H           1 KR2       0.0467
     54 H24        -5.9416    6.4440   -3.7211 H           1 KR2       0.0522
     55 H25        -6.4642    1.8044   -5.0202 H           1 KR2       0.0562
@<TRIPOS>BOND
     1     1     2  ar
     2     1     6  ar
     3     2     3  ar
     4     3     4  ar
     5     4     5  ar
     6     5     6  ar
     7     6     7   1
     8     7     8   2
     9     7     9  am
    10     9    10   1
    11     9    15   1
    12    10    11   1
    13    11    12   1
    14    12    13   1
    15    13    14   1
    16    14    15   1
    17    15    16  am
    18    16    17   2
    19    16    18   1
    20    18    19   1
    21    19    20   1
    22    19    21   1
    23    21    22   1
    24    22    23  ar
    25    22    29  ar
    26    23    24  ar
    27    24    25   1
    28    24    26  ar
    29    26    27   1
    30    26    28  ar
    31    28    29  ar
    32    29    30   1
    33     1    31   1
    34     2    32   1
    35     3    33   1
    36     4    34   1
    37     5    35   1
    38    10    36   1
    39    10    37   1
    40    11    38   1
    41    11    39   1
    42    12    40   1
    43    12    41   1
    44    13    42   1
    45    13    43   1
    46    14    44   1
    47    14    45   1
    48    18    46   1
    49    18    47   1
    50    19    48   1
    51    20    49   1
    52    20    50   1
    53    20    51   1
    54    21    52   1
    55    21    53   1
    56    23    54   1
    57    28    55   1
@<TRIPOS>SUBSTRUCTURE
     1  KR2      1

