@<TRIPOS>MOLECULE
2ole_ligand_070
    55    57
SMALL
GAST_HUCK
****
This file was generated by PARSER (from files_GN.cpp)

@<TRIPOS>ATOM
      1 CAY        -2.7328    1.4213   -9.9759 C.ar        1 KR2      -0.0419
      2 CBC        -2.1219    0.5914  -10.9344 C.ar        1 KR2      -0.0562
      3 CBB        -0.8295    0.0897  -10.7114 C.ar        1 KR2      -0.0575
      4 CBA        -0.1398    0.4195   -9.5331 C.ar        1 KR2      -0.0562
      5 CAZ        -0.7505    1.2449   -8.5666 C.ar        1 KR2      -0.0419
      6 CAX        -2.0622    1.7399   -8.7715 C.ar        1 KR2       0.0519
      7 CAW        -2.6827    2.5209   -7.8131 C.2         1 KR2       0.2286
      8 OAA        -2.8856    3.6868   -8.1426 O.2         1 KR2      -0.3825
      9 NAR        -3.0713    2.0923   -6.5906 N.am        1 KR2      -0.1656
     10 CAV        -2.9931    0.6855   -6.2163 C.3         1 KR2       0.0587
     11 CDD        -3.5075    0.2447   -4.8124 C.3         1 KR2      -0.0303
     12 CNN        -5.0245    0.4680   -4.5851 C.3         1 KR2      -0.0492
     13 CAT        -5.4171    1.9460   -4.3517 C.3         1 KR2      -0.0302
     14 CAS        -5.0266    2.8803   -5.5241 C.3         1 KR2       0.0592
     15 NAQ        -3.5881    2.9628   -5.7165 N.am        1 KR2      -0.1666
     16 CAO        -2.7554    3.7774   -5.0308 C.2         1 KR2       0.2052
     17 OAP        -1.5494    3.6666   -5.2332 O.2         1 KR2      -0.3947
     18 CAN        -3.0980    4.6900   -3.9451 C.3         1 KR2       0.0838
     19 CAL        -2.5681    6.1660   -4.0729 C.3         1 KR2       0.0010
     20 NAM        -2.1131    6.6236   -2.7440 N.4         1 KR2       0.2238
     21 CAK        -3.6008    7.1934   -4.6349 C.3         1 KR2       0.0243
     22 CAG        -3.7169    7.2353   -6.1249 C.ar        1 KR2      -0.0094
     23 CAH        -4.7245    6.5016   -6.7988 C.ar        1 KR2      -0.0298
     24 CAC        -4.8844    6.5860   -8.1994 C.ar        1 KR2       0.1544
     25 FAB        -5.8364    5.9088   -8.7822 F           1 KR2      -0.1895
     26 CAD        -4.0525    7.4432   -8.9470 C.ar        1 KR2       0.1560
     27 FAI        -4.2077    7.5592  -10.2375 F           1 KR2      -0.1911
     28 CAE        -3.0604    8.1936   -8.2921 C.ar        1 KR2      -0.0030
     29 CAF        -2.8838    8.0810   -6.9004 C.ar        1 KR2       0.1274
     30 FAJ        -1.9564    8.8253   -6.3467 F           1 KR2      -0.1934
     31 H1         -3.6768    1.7709  -10.1506 H           1 KR2       0.0669
     32 H2         -2.6225    0.3501  -11.7924 H           1 KR2       0.0629
     33 H3         -0.3872   -0.5179  -11.4076 H           1 KR2       0.0653
     34 H4          0.8053    0.0585   -9.3724 H           1 KR2       0.0629
     35 H5         -0.2331    1.4729   -7.7159 H           1 KR2       0.0669
     36 H6         -1.9469    0.3729   -6.2582 H           1 KR2       0.0545
     37 H7         -3.5422    0.0986   -6.9611 H           1 KR2       0.0545
     38 H8         -2.9362    0.7612   -4.0340 H           1 KR2       0.0285
     39 H9         -3.3063   -0.8257   -4.7067 H           1 KR2       0.0285
     40 H10        -5.3236   -0.0991   -3.7013 H           1 KR2       0.0267
     41 H11        -5.5829    0.0680   -5.4350 H           1 KR2       0.0267
     42 H12        -4.9620    2.3014   -3.4256 H           1 KR2       0.0285
     43 H13        -6.5020    1.9933   -4.2170 H           1 KR2       0.0285
     44 H14        -5.4652    3.8607   -5.3461 H           1 KR2       0.0546
     45 H15        -5.5077    2.5085   -6.4374 H           1 KR2       0.0546
     46 H16        -2.6731    4.2346   -3.0458 H           1 KR2       0.0561
     47 H17        -4.1680    4.7251   -3.7629 H           1 KR2       0.0561
     48 H18        -1.6716    6.1905   -4.6915 H           1 KR2       0.0898
     49 H19        -1.7053    7.5592   -2.8179 H           1 KR2       0.2000
     50 H20        -1.3920    5.9862   -2.3962 H           1 KR2       0.2000
     51 H21        -2.8955    6.6441   -2.0879 H           1 KR2       0.2000
     52 H22        -3.3146    8.1954   -4.3026 H           1 KR2       0.0467
     53 H23        -4.5826    7.0102   -4.1915 H           1 KR2       0.0467
     54 H24        -5.3798    5.9329   -6.2651 H           1 KR2       0.0522
     55 H25        -2.4707    8.8352   -8.8327 H           1 KR2       0.0562
@<TRIPOS>BOND
     1     1     2  ar
     2     1     6  ar
     3     2     3  ar
     4     3     4  ar
     5     4     5  ar
     6     5     6  ar
     7     6     7   1
     8     7     8   2
     9     7     9  am
    10     9    10   1
    11     9    15   1
    12    10    11   1
    13    11    12   1
    14    12    13   1
    15    13    14   1
    16    14    15   1
    17    15    16  am
    18    16    17   2
    19    16    18   1
    20    18    19   1
    21    19    20   1
    22    19    21   1
    23    21    22   1
    24    22    23  ar
    25    22    29  ar
    26    23    24  ar
    27    24    25   1
    28    24    26  ar
    29    26    27   1
    30    26    28  ar
    31    28    29  ar
    32    29    30   1
    33     1    31   1
    34     2    32   1
    35     3    33   1
    36     4    34   1
    37     5    35   1
    38    10    36   1
    39    10    37   1
    40    11    38   1
    41    11    39   1
    42    12    40   1
    43    12    41   1
    44    13    42   1
    45    13    43   1
    46    14    44   1
    47    14    45   1
    48    18    46   1
    49    18    47   1
    50    19    48   1
    51    20    49   1
    52    20    50   1
    53    20    51   1
    54    21    52   1
    55    21    53   1
    56    23    54   1
    57    28    55   1
@<TRIPOS>SUBSTRUCTURE
     1  KR2      1

