@<TRIPOS>MOLECULE
2ole_ligand_023
    55    57
SMALL
GAST_HUCK
****
This file was generated by PARSER (from files_GN.cpp)

@<TRIPOS>ATOM
      1 CAY        -1.4784    3.4672   -8.4683 C.ar        1 KR2      -0.0419
      2 CBC        -0.8082    2.9735   -9.6032 C.ar        1 KR2      -0.0562
      3 CBB        -1.2881    3.2755  -10.8898 C.ar        1 KR2      -0.0575
      4 CBA        -2.4505    4.0555  -11.0389 C.ar        1 KR2      -0.0562
      5 CAZ        -3.1205    4.5508   -9.9034 C.ar        1 KR2      -0.0419
      6 CAX        -2.6299    4.2791   -8.6028 C.ar        1 KR2       0.0519
      7 CAW        -3.2583    4.8191   -7.4883 C.2         1 KR2       0.2286
      8 OAA        -4.4280    4.4822   -7.3367 O.2         1 KR2      -0.3825
      9 NAR        -2.7038    5.6992   -6.6318 N.am        1 KR2      -0.1656
     10 CAV        -1.4044    6.3225   -6.8033 C.3         1 KR2       0.0587
     11 CDD        -1.4586    7.4948   -7.8138 C.3         1 KR2      -0.0303
     12 CNN        -2.3971    8.6490   -7.3758 C.3         1 KR2      -0.0492
     13 CAT        -3.8717    8.2273   -7.1423 C.3         1 KR2      -0.0302
     14 CAS        -4.1051    7.4563   -5.8109 C.3         1 KR2       0.0592
     15 NAQ        -3.4286    6.1818   -5.6195 N.am        1 KR2      -0.1666
     16 CAO        -3.4446    5.5048   -4.4542 C.2         1 KR2       0.2052
     17 OAP        -2.8347    4.4431   -4.3663 O.2         1 KR2      -0.3947
     18 CAN        -4.1556    5.8953   -3.2375 C.3         1 KR2       0.0838
     19 CAL        -3.2712    6.2685   -1.9847 C.3         1 KR2       0.0010
     20 NAM        -1.8951    6.6639   -2.3539 N.4         1 KR2       0.2238
     21 CAK        -3.2632    5.1775   -0.8540 C.3         1 KR2       0.0243
     22 CAG        -4.2365    5.3661    0.2763 C.ar        1 KR2      -0.0094
     23 CAH        -3.8199    5.0985    1.6091 C.ar        1 KR2      -0.0298
     24 CAC        -4.7115    5.2173    2.6944 C.ar        1 KR2       0.1544
     25 FAB        -4.3134    4.9315    3.9051 F           1 KR2      -0.1895
     26 CAD        -6.0364    5.6406    2.4768 C.ar        1 KR2       0.1560
     27 FAI        -6.8777    5.7757    3.4673 F           1 KR2      -0.1911
     28 CAE        -6.4634    5.9160    1.1692 C.ar        1 KR2      -0.0030
     29 CAF        -5.5893    5.7635    0.0798 C.ar        1 KR2       0.1274
     30 FAJ        -6.1084    6.0162   -1.0884 F           1 KR2      -0.1934
     31 H1         -1.1140    3.2268   -7.5436 H           1 KR2       0.0669
     32 H2          0.0372    2.4094   -9.4964 H           1 KR2       0.0629
     33 H3         -0.7992    2.9255  -11.7180 H           1 KR2       0.0653
     34 H4         -2.8069    4.2708  -11.9765 H           1 KR2       0.0629
     35 H5         -3.9557    5.1287  -10.0369 H           1 KR2       0.0669
     36 H6         -0.6499    5.6071   -7.1344 H           1 KR2       0.0545
     37 H7         -1.0507    6.7122   -5.8396 H           1 KR2       0.0545
     38 H8         -1.7725    7.1231   -8.7923 H           1 KR2       0.0285
     39 H9         -0.4497    7.8990   -7.9281 H           1 KR2       0.0285
     40 H10        -2.3859    9.4066   -8.1649 H           1 KR2       0.0267
     41 H11        -1.9998    9.1144   -6.4678 H           1 KR2       0.0267
     42 H12        -4.2269    7.6309   -7.9872 H           1 KR2       0.0285
     43 H13        -4.4743    9.1383   -7.1098 H           1 KR2       0.0285
     44 H14        -5.1820    7.2824   -5.7299 H           1 KR2       0.0546
     45 H15        -3.8108    8.1342   -5.0041 H           1 KR2       0.0546
     46 H16        -4.8188    5.0595   -2.9953 H           1 KR2       0.0561
     47 H17        -4.8295    6.7325   -3.4264 H           1 KR2       0.0561
     48 H18        -3.6731    7.1874   -1.5463 H           1 KR2       0.0898
     49 H19        -1.4202    7.0161   -1.5186 H           1 KR2       0.2000
     50 H20        -1.9161    7.4048   -3.0595 H           1 KR2       0.2000
     51 H21        -1.3764    5.8638   -2.7183 H           1 KR2       0.2000
     52 H22        -2.2492    5.1292   -0.4430 H           1 KR2       0.0467
     53 H23        -3.4402    4.1949   -1.2953 H           1 KR2       0.0467
     54 H24        -2.8601    4.7882    1.7974 H           1 KR2       0.0522
     55 H25        -7.4223    6.2320    1.0050 H           1 KR2       0.0562
@<TRIPOS>BOND
     1     1     2  ar
     2     1     6  ar
     3     2     3  ar
     4     3     4  ar
     5     4     5  ar
     6     5     6  ar
     7     6     7   1
     8     7     8   2
     9     7     9  am
    10     9    10   1
    11     9    15   1
    12    10    11   1
    13    11    12   1
    14    12    13   1
    15    13    14   1
    16    14    15   1
    17    15    16  am
    18    16    17   2
    19    16    18   1
    20    18    19   1
    21    19    20   1
    22    19    21   1
    23    21    22   1
    24    22    23  ar
    25    22    29  ar
    26    23    24  ar
    27    24    25   1
    28    24    26  ar
    29    26    27   1
    30    26    28  ar
    31    28    29  ar
    32    29    30   1
    33     1    31   1
    34     2    32   1
    35     3    33   1
    36     4    34   1
    37     5    35   1
    38    10    36   1
    39    10    37   1
    40    11    38   1
    41    11    39   1
    42    12    40   1
    43    12    41   1
    44    13    42   1
    45    13    43   1
    46    14    44   1
    47    14    45   1
    48    18    46   1
    49    18    47   1
    50    19    48   1
    51    20    49   1
    52    20    50   1
    53    20    51   1
    54    21    52   1
    55    21    53   1
    56    23    54   1
    57    28    55   1
@<TRIPOS>SUBSTRUCTURE
     1  KR2      1

