@<TRIPOS>MOLECULE
2ole_ligand_059
    55    57
SMALL
GAST_HUCK
****
This file was generated by PARSER (from files_GN.cpp)

@<TRIPOS>ATOM
      1 CAY        -7.4190    4.6495   -5.1594 C.ar        1 KR2      -0.0419
      2 CBC        -8.1083    5.6974   -4.5216 C.ar        1 KR2      -0.0562
      3 CBB        -7.5254    6.9695   -4.4309 C.ar        1 KR2      -0.0575
      4 CBA        -6.2804    7.2054   -5.0364 C.ar        1 KR2      -0.0562
      5 CAZ        -5.6185    6.1635   -5.7141 C.ar        1 KR2      -0.0419
      6 CAX        -6.1345    4.8467   -5.7500 C.ar        1 KR2       0.0519
      7 CAW        -5.4426    3.7751   -6.3563 C.2         1 KR2       0.2286
      8 OAA        -6.1501    2.9967   -6.9912 O.2         1 KR2      -0.3825
      9 NAR        -4.1155    3.4899   -6.2619 N.am        1 KR2      -0.1656
     10 CAV        -3.5587    2.3000   -6.9070 C.3         1 KR2       0.0587
     11 CDD        -2.0494    1.9595   -6.7007 C.3         1 KR2      -0.0303
     12 CNN        -1.0717    3.0056   -7.3018 C.3         1 KR2      -0.0492
     13 CAT        -0.9769    4.3282   -6.4910 C.3         1 KR2      -0.0302
     14 CAS        -2.3423    5.0454   -6.3370 C.3         1 KR2       0.0592
     15 NAQ        -3.2780    4.2545   -5.5483 N.am        1 KR2      -0.1666
     16 CAO        -3.2968    4.1950   -4.2022 C.2         1 KR2       0.2052
     17 OAP        -3.9668    3.3034   -3.6829 O.2         1 KR2      -0.3947
     18 CAN        -2.5878    5.0693   -3.2558 C.3         1 KR2       0.0838
     19 CAL        -3.4881    6.1627   -2.5867 C.3         1 KR2       0.0010
     20 NAM        -2.6439    7.2112   -1.9662 N.4         1 KR2       0.2238
     21 CAK        -4.6072    5.6600   -1.6042 C.3         1 KR2       0.0243
     22 CAG        -4.2862    5.7584   -0.1502 C.ar        1 KR2      -0.0094
     23 CAH        -4.8428    6.8063    0.6256 C.ar        1 KR2      -0.0298
     24 CAC        -4.5329    6.9466    1.9909 C.ar        1 KR2       0.1544
     25 FAB        -5.0471    7.9386    2.6713 F           1 KR2      -0.1895
     26 CAD        -3.6548    6.0339    2.6047 C.ar        1 KR2       0.1560
     27 FAI        -3.3423    6.1649    3.8659 F           1 KR2      -0.1911
     28 CAE        -3.0932    4.9857    1.8486 C.ar        1 KR2      -0.0030
     29 CAF        -3.4092    4.8460    0.4831 C.ar        1 KR2       0.1274
     30 FAJ        -2.8870    3.8376   -0.1652 F           1 KR2      -0.1934
     31 H1         -7.8589    3.7295   -5.1752 H           1 KR2       0.0669
     32 H2         -9.0302    5.5309   -4.1073 H           1 KR2       0.0629
     33 H3         -8.0157    7.7304   -3.9559 H           1 KR2       0.0653
     34 H4         -5.8653    8.1371   -4.9980 H           1 KR2       0.0629
     35 H5         -4.7544    6.3960   -6.2012 H           1 KR2       0.0669
     36 H6         -3.7320    2.3725   -7.9858 H           1 KR2       0.0545
     37 H7         -4.1131    1.4294   -6.5438 H           1 KR2       0.0545
     38 H8         -1.8519    0.9988   -7.1888 H           1 KR2       0.0285
     39 H9         -1.8415    1.8257   -5.6345 H           1 KR2       0.0285
     40 H10        -1.3685    3.2291   -8.3328 H           1 KR2       0.0267
     41 H11        -0.0708    2.5642   -7.3416 H           1 KR2       0.0267
     42 H12        -0.2888    5.0011   -7.0124 H           1 KR2       0.0285
     43 H13        -0.5564    4.1208   -5.5010 H           1 KR2       0.0285
     44 H14        -2.7402    5.2158   -7.3467 H           1 KR2       0.0546
     45 H15        -2.2014    6.0394   -5.9042 H           1 KR2       0.0546
     46 H16        -1.7744    5.5830   -3.7711 H           1 KR2       0.0561
     47 H17        -2.1203    4.4619   -2.4757 H           1 KR2       0.0561
     48 H18        -3.9951    6.6802   -3.4032 H           1 KR2       0.0898
     49 H19        -3.2434    7.9185   -1.5345 H           1 KR2       0.2000
     50 H20        -2.0597    7.6611   -2.6801 H           1 KR2       0.2000
     51 H21        -2.0416    6.8046   -1.2458 H           1 KR2       0.2000
     52 H22        -4.8920    4.6277   -1.8065 H           1 KR2       0.0467
     53 H23        -5.5176    6.2353   -1.8014 H           1 KR2       0.0467
     54 H24        -5.4747    7.4851    0.1954 H           1 KR2       0.0522
     55 H25        -2.4547    4.3211    2.2934 H           1 KR2       0.0562
@<TRIPOS>BOND
     1     1     2  ar
     2     1     6  ar
     3     2     3  ar
     4     3     4  ar
     5     4     5  ar
     6     5     6  ar
     7     6     7   1
     8     7     8   2
     9     7     9  am
    10     9    10   1
    11     9    15   1
    12    10    11   1
    13    11    12   1
    14    12    13   1
    15    13    14   1
    16    14    15   1
    17    15    16  am
    18    16    17   2
    19    16    18   1
    20    18    19   1
    21    19    20   1
    22    19    21   1
    23    21    22   1
    24    22    23  ar
    25    22    29  ar
    26    23    24  ar
    27    24    25   1
    28    24    26  ar
    29    26    27   1
    30    26    28  ar
    31    28    29  ar
    32    29    30   1
    33     1    31   1
    34     2    32   1
    35     3    33   1
    36     4    34   1
    37     5    35   1
    38    10    36   1
    39    10    37   1
    40    11    38   1
    41    11    39   1
    42    12    40   1
    43    12    41   1
    44    13    42   1
    45    13    43   1
    46    14    44   1
    47    14    45   1
    48    18    46   1
    49    18    47   1
    50    19    48   1
    51    20    49   1
    52    20    50   1
    53    20    51   1
    54    21    52   1
    55    21    53   1
    56    23    54   1
    57    28    55   1
@<TRIPOS>SUBSTRUCTURE
     1  KR2      1

