@<TRIPOS>MOLECULE
2ole_ligand_043
    55    57
SMALL
GAST_HUCK
****
This file was generated by PARSER (from files_GN.cpp)

@<TRIPOS>ATOM
      1 CAY        -1.7577    3.6781   -9.6141 C.ar        1 KR2      -0.0419
      2 CBC        -0.9650    2.8741  -10.4484 C.ar        1 KR2      -0.0562
      3 CBB        -0.1705    1.8520   -9.8984 C.ar        1 KR2      -0.0575
      4 CBA        -0.1768    1.6308   -8.5100 C.ar        1 KR2      -0.0562
      5 CAZ        -0.9628    2.4414   -7.6694 C.ar        1 KR2      -0.0419
      6 CAX        -1.7469    3.4893   -8.2119 C.ar        1 KR2       0.0519
      7 CAW        -2.5397    4.2759   -7.3894 C.2         1 KR2       0.2286
      8 OAA        -3.3505    3.6384   -6.7158 O.2         1 KR2      -0.3825
      9 NAR        -2.4810    5.6117   -7.2591 N.am        1 KR2      -0.1656
     10 CAV        -1.5392    6.4287   -8.0094 C.3         1 KR2       0.0587
     11 CDD        -1.4846    7.9569   -7.7360 C.3         1 KR2      -0.0303
     12 CNN        -2.7933    8.7262   -8.0679 C.3         1 KR2      -0.0492
     13 CAT        -3.9361    8.5032   -7.0479 C.3         1 KR2      -0.0302
     14 CAS        -4.3402    7.0129   -6.9060 C.3         1 KR2       0.0592
     15 NAQ        -3.2521    6.2249   -6.3546 N.am        1 KR2      -0.1666
     16 CAO        -2.8960    6.1963   -5.0509 C.2         1 KR2       0.2052
     17 OAP        -1.8899    5.5692   -4.7311 O.2         1 KR2      -0.3947
     18 CAN        -3.5659    6.9349   -3.9781 C.3         1 KR2       0.0838
     19 CAL        -3.3346    6.4576   -2.5067 C.3         1 KR2       0.0010
     20 NAM        -1.9055    6.6129   -2.1780 N.4         1 KR2       0.2238
     21 CAK        -3.8428    5.0276   -2.0920 C.3         1 KR2       0.0243
     22 CAG        -4.2934    4.0893   -3.1692 C.ar        1 KR2      -0.0094
     23 CAH        -3.5828    2.8841   -3.4021 C.ar        1 KR2      -0.0298
     24 CAC        -3.9862    1.9806   -4.4061 C.ar        1 KR2       0.1544
     25 FAB        -3.3078    0.8808   -4.5970 F           1 KR2      -0.1895
     26 CAD        -5.0818    2.2967   -5.2319 C.ar        1 KR2       0.1560
     27 FAI        -5.4468    1.4899   -6.1940 F           1 KR2      -0.1911
     28 CAE        -5.8006    3.4827   -5.0139 C.ar        1 KR2      -0.0030
     29 CAF        -5.4475    4.3443   -3.9555 C.ar        1 KR2       0.1274
     30 FAJ        -6.2188    5.3741   -3.7301 F           1 KR2      -0.1934
     31 H1         -2.3568    4.3916  -10.0381 H           1 KR2       0.0669
     32 H2         -0.9751    3.0258  -11.4600 H           1 KR2       0.0629
     33 H3          0.3993    1.2640  -10.5083 H           1 KR2       0.0653
     34 H4          0.3887    0.8777   -8.1103 H           1 KR2       0.0629
     35 H5         -0.9494    2.2645   -6.6598 H           1 KR2       0.0669
     36 H6         -1.7474    6.3101   -9.0737 H           1 KR2       0.0545
     37 H7         -0.5386    6.0392   -7.8129 H           1 KR2       0.0545
     38 H8         -0.6857    8.3689   -8.3598 H           1 KR2       0.0285
     39 H9         -1.2099    8.1342   -6.6935 H           1 KR2       0.0285
     40 H10        -3.1389    8.4503   -9.0676 H           1 KR2       0.0267
     41 H11        -2.5730    9.7965   -8.0872 H           1 KR2       0.0267
     42 H12        -4.8024    9.0779   -7.3741 H           1 KR2       0.0285
     43 H13        -3.6372    8.9062   -6.0790 H           1 KR2       0.0285
     44 H14        -4.6213    6.6437   -7.8983 H           1 KR2       0.0546
     45 H15        -5.2480    6.9199   -6.3078 H           1 KR2       0.0546
     46 H16        -4.6514    6.9200   -4.1351 H           1 KR2       0.0561
     47 H17        -3.2622    7.9856   -4.0504 H           1 KR2       0.0561
     48 H18        -3.8541    7.1792   -1.8667 H           1 KR2       0.0898
     49 H19        -1.7661    6.5639   -1.1657 H           1 KR2       0.2000
     50 H20        -1.5632    7.5141   -2.5194 H           1 KR2       0.2000
     51 H21        -1.3644    5.8716   -2.6250 H           1 KR2       0.2000
     52 H22        -4.6855    5.1429   -1.4033 H           1 KR2       0.0467
     53 H23        -3.0541    4.5440   -1.5039 H           1 KR2       0.0467
     54 H24        -2.7597    2.6508   -2.8397 H           1 KR2       0.0522
     55 H25        -6.6029    3.7084   -5.6093 H           1 KR2       0.0562
@<TRIPOS>BOND
     1     1     2  ar
     2     1     6  ar
     3     2     3  ar
     4     3     4  ar
     5     4     5  ar
     6     5     6  ar
     7     6     7   1
     8     7     8   2
     9     7     9  am
    10     9    10   1
    11     9    15   1
    12    10    11   1
    13    11    12   1
    14    12    13   1
    15    13    14   1
    16    14    15   1
    17    15    16  am
    18    16    17   2
    19    16    18   1
    20    18    19   1
    21    19    20   1
    22    19    21   1
    23    21    22   1
    24    22    23  ar
    25    22    29  ar
    26    23    24  ar
    27    24    25   1
    28    24    26  ar
    29    26    27   1
    30    26    28  ar
    31    28    29  ar
    32    29    30   1
    33     1    31   1
    34     2    32   1
    35     3    33   1
    36     4    34   1
    37     5    35   1
    38    10    36   1
    39    10    37   1
    40    11    38   1
    41    11    39   1
    42    12    40   1
    43    12    41   1
    44    13    42   1
    45    13    43   1
    46    14    44   1
    47    14    45   1
    48    18    46   1
    49    18    47   1
    50    19    48   1
    51    20    49   1
    52    20    50   1
    53    20    51   1
    54    21    52   1
    55    21    53   1
    56    23    54   1
    57    28    55   1
@<TRIPOS>SUBSTRUCTURE
     1  KR2      1

