@<TRIPOS>MOLECULE
2ole_ligand_003
    55    57
SMALL
GAST_HUCK
****
This file was generated by PARSER (from files_GN.cpp)

@<TRIPOS>ATOM
      1 CAY        -2.8236    6.5867   -8.8989 C.ar        1 KR2      -0.0419
      2 CBC        -3.2067    7.9286   -9.0914 C.ar        1 KR2      -0.0562
      3 CBB        -2.9412    8.8923   -8.1008 C.ar        1 KR2      -0.0575
      4 CBA        -2.2782    8.5116   -6.9195 C.ar        1 KR2      -0.0562
      5 CAZ        -1.8833    7.1755   -6.7338 C.ar        1 KR2      -0.0419
      6 CAX        -2.1630    6.1867   -7.7085 C.ar        1 KR2       0.0519
      7 CAW        -1.7707    4.8593   -7.5332 C.2         1 KR2       0.2286
      8 OAA        -0.9615    4.4437   -8.3529 O.2         1 KR2      -0.3825
      9 NAR        -2.2852    4.0204   -6.6103 N.am        1 KR2      -0.1656
     10 CAV        -1.9325    2.6087   -6.5924 C.3         1 KR2       0.0587
     11 CDD        -2.6465    1.6819   -5.5633 C.3         1 KR2      -0.0303
     12 CNN        -4.1880    1.5812   -5.7414 C.3         1 KR2      -0.0492
     13 CAT        -4.9953    2.8409   -5.3196 C.3         1 KR2      -0.0302
     14 CAS        -4.5632    4.1413   -6.0502 C.3         1 KR2       0.0592
     15 NAQ        -3.1842    4.4641   -5.7334 N.am        1 KR2      -0.1666
     16 CAO        -2.7751    5.0003   -4.5661 C.2         1 KR2       0.2052
     17 OAP        -1.5803    4.9277   -4.2870 O.2         1 KR2      -0.3947
     18 CAN        -3.6135    5.8648   -3.7323 C.3         1 KR2       0.0838
     19 CAL        -3.1509    6.2290   -2.2841 C.3         1 KR2       0.0010
     20 NAM        -1.8067    6.8271   -2.2632 N.4         1 KR2       0.2238
     21 CAK        -3.2773    5.0393   -1.2681 C.3         1 KR2       0.0243
     22 CAG        -4.2498    5.2689   -0.1501 C.ar        1 KR2      -0.0094
     23 CAH        -3.8513    5.0995    1.1979 C.ar        1 KR2      -0.0298
     24 CAC        -4.7623    5.2942    2.2565 C.ar        1 KR2       0.1544
     25 FAB        -4.3716    5.1058    3.4889 F           1 KR2      -0.1895
     26 CAD        -6.0837    5.6982    1.9821 C.ar        1 KR2       0.1560
     27 FAI        -6.9339    5.9145    2.9504 F           1 KR2      -0.1911
     28 CAE        -6.4946    5.8713    0.6516 C.ar        1 KR2      -0.0030
     29 CAF        -5.5987    5.6383   -0.4081 C.ar        1 KR2       0.1274
     30 FAJ        -6.0662    5.7849   -1.6181 F           1 KR2      -0.1934
     31 H1         -3.0314    5.9036   -9.6326 H           1 KR2       0.0669
     32 H2         -3.6752    8.2071   -9.9595 H           1 KR2       0.0629
     33 H3         -3.2112    9.8685   -8.2490 H           1 KR2       0.0653
     34 H4         -2.0691    9.2119   -6.2064 H           1 KR2       0.0629
     35 H5         -1.3708    6.9389   -5.8820 H           1 KR2       0.0669
     36 H6         -0.8562    2.5290   -6.4074 H           1 KR2       0.0545
     37 H7         -2.1263    2.1919   -7.5858 H           1 KR2       0.0545
     38 H8         -2.4096    2.0069   -4.5474 H           1 KR2       0.0285
     39 H9         -2.2306    0.6767   -5.6851 H           1 KR2       0.0285
     40 H10        -4.5407    0.7430   -5.1334 H           1 KR2       0.0267
     41 H11        -4.4153    1.3401   -6.7837 H           1 KR2       0.0267
     42 H12        -4.9036    2.9768   -4.2382 H           1 KR2       0.0285
     43 H13        -6.0518    2.6580   -5.5343 H           1 KR2       0.0285
     44 H14        -5.2363    4.9635   -5.7975 H           1 KR2       0.0546
     45 H15        -4.6879    3.9796   -7.1261 H           1 KR2       0.0546
     46 H16        -4.5945    5.4014   -3.6336 H           1 KR2       0.0561
     47 H17        -3.7593    6.8009   -4.2867 H           1 KR2       0.0561
     48 H18        -3.7967    7.0473   -1.9536 H           1 KR2       0.0898
     49 H19        -1.6155    7.2013   -1.3324 H           1 KR2       0.2000
     50 H20        -1.7571    7.5828   -2.9483 H           1 KR2       0.2000
     51 H21        -1.1032    6.1248   -2.4863 H           1 KR2       0.2000
     52 H22        -2.2839    4.8099   -0.8624 H           1 KR2       0.0467
     53 H23        -3.5960    4.1314   -1.7857 H           1 KR2       0.0467
     54 H24        -2.8923    4.8197    1.4223 H           1 KR2       0.0522
     55 H25        -7.4512    6.1662    0.4455 H           1 KR2       0.0562
@<TRIPOS>BOND
     1     1     2  ar
     2     1     6  ar
     3     2     3  ar
     4     3     4  ar
     5     4     5  ar
     6     5     6  ar
     7     6     7   1
     8     7     8   2
     9     7     9  am
    10     9    10   1
    11     9    15   1
    12    10    11   1
    13    11    12   1
    14    12    13   1
    15    13    14   1
    16    14    15   1
    17    15    16  am
    18    16    17   2
    19    16    18   1
    20    18    19   1
    21    19    20   1
    22    19    21   1
    23    21    22   1
    24    22    23  ar
    25    22    29  ar
    26    23    24  ar
    27    24    25   1
    28    24    26  ar
    29    26    27   1
    30    26    28  ar
    31    28    29  ar
    32    29    30   1
    33     1    31   1
    34     2    32   1
    35     3    33   1
    36     4    34   1
    37     5    35   1
    38    10    36   1
    39    10    37   1
    40    11    38   1
    41    11    39   1
    42    12    40   1
    43    12    41   1
    44    13    42   1
    45    13    43   1
    46    14    44   1
    47    14    45   1
    48    18    46   1
    49    18    47   1
    50    19    48   1
    51    20    49   1
    52    20    50   1
    53    20    51   1
    54    21    52   1
    55    21    53   1
    56    23    54   1
    57    28    55   1
@<TRIPOS>SUBSTRUCTURE
     1  KR2      1

