@<TRIPOS>MOLECULE
2ole_ligand_028
    55    57
SMALL
GAST_HUCK
****
This file was generated by PARSER (from files_GN.cpp)

@<TRIPOS>ATOM
      1 CAY        -8.5975    2.4134   -5.2543 C.ar        1 KR2      -0.0419
      2 CBC        -9.8632    2.0259   -5.7228 C.ar        1 KR2      -0.0562
      3 CBB       -10.3420    0.7276   -5.4764 C.ar        1 KR2      -0.0575
      4 CBA        -9.5590   -0.1775   -4.7397 C.ar        1 KR2      -0.0562
      5 CAZ        -8.2895    0.2081   -4.2685 C.ar        1 KR2      -0.0419
      6 CAX        -7.7836    1.5019   -4.5423 C.ar        1 KR2       0.0519
      7 CAW        -6.5231    1.8861   -4.0956 C.2         1 KR2       0.2286
      8 OAA        -6.2370    1.5371   -2.9554 O.2         1 KR2      -0.3825
      9 NAR        -5.6057    2.5501   -4.8308 N.am        1 KR2      -0.1656
     10 CAV        -5.7687    2.7976   -6.2551 C.3         1 KR2       0.0587
     11 CDD        -4.5507    3.3482   -7.0497 C.3         1 KR2      -0.0303
     12 CNN        -3.3044    2.4201   -7.0297 C.3         1 KR2      -0.0492
     13 CAT        -2.5064    2.4394   -5.6969 C.3         1 KR2      -0.0302
     14 CAS        -3.3422    2.0382   -4.4514 C.3         1 KR2       0.0592
     15 NAQ        -4.4652    2.9349   -4.2501 N.am        1 KR2      -0.1666
     16 CAO        -4.4080    4.1152   -3.5931 C.2         1 KR2       0.2052
     17 OAP        -5.4350    4.7866   -3.5101 O.2         1 KR2      -0.3947
     18 CAN        -3.2382    4.6090   -2.8607 C.3         1 KR2       0.0838
     19 CAL        -3.1916    6.1355   -2.4927 C.3         1 KR2       0.0010
     20 NAM        -1.8072    6.5691   -2.2058 N.4         1 KR2       0.2238
     21 CAK        -4.1747    6.6208   -1.3756 C.3         1 KR2       0.0243
     22 CAG        -4.2413    5.9944   -0.0177 C.ar        1 KR2      -0.0094
     23 CAH        -3.2076    5.1888    0.5188 C.ar        1 KR2      -0.0298
     24 CAC        -3.2882    4.6504    1.8145 C.ar        1 KR2       0.1544
     25 FAB        -2.3045    3.9207    2.2616 F           1 KR2      -0.1895
     26 CAD        -4.4236    4.8946    2.6085 C.ar        1 KR2       0.1560
     27 FAI        -4.5188    4.3905    3.8102 F           1 KR2      -0.1911
     28 CAE        -5.4672    5.6878    2.1021 C.ar        1 KR2      -0.0030
     29 CAF        -5.3703    6.2416    0.8110 C.ar        1 KR2       0.1274
     30 FAJ        -6.3580    7.0015    0.4139 F           1 KR2      -0.1934
     31 H1         -8.2805    3.3712   -5.4246 H           1 KR2       0.0669
     32 H2        -10.4365    2.6879   -6.2501 H           1 KR2       0.0629
     33 H3        -11.2619    0.4471   -5.8223 H           1 KR2       0.0653
     34 H4         -9.9078   -1.1207   -4.5546 H           1 KR2       0.0629
     35 H5         -7.7331   -0.4697   -3.7402 H           1 KR2       0.0669
     36 H6         -6.5825    3.5123   -6.4017 H           1 KR2       0.0545
     37 H7         -6.0635    1.8613   -6.7375 H           1 KR2       0.0545
     38 H8         -4.2799    4.3390   -6.6693 H           1 KR2       0.0285
     39 H9         -4.8620    3.4795   -8.0935 H           1 KR2       0.0285
     40 H10        -2.6306    2.7417   -7.8277 H           1 KR2       0.0267
     41 H11        -3.6139    1.3932   -7.2568 H           1 KR2       0.0267
     42 H12        -2.0857    3.4387   -5.5601 H           1 KR2       0.0285
     43 H13        -1.6673    1.7408   -5.7914 H           1 KR2       0.0285
     44 H14        -2.6966    2.0102   -3.5694 H           1 KR2       0.0546
     45 H15        -3.6926    1.0101   -4.5936 H           1 KR2       0.0546
     46 H16        -2.3509    4.4234   -3.4743 H           1 KR2       0.0561
     47 H17        -3.1371    3.9979   -1.9624 H           1 KR2       0.0561
     48 H18        -3.4529    6.6849   -3.4045 H           1 KR2       0.0898
     49 H19        -1.6701    7.5524   -2.4619 H           1 KR2       0.2000
     50 H20        -1.1444    6.0078   -2.7465 H           1 KR2       0.2000
     51 H21        -1.5965    6.4586   -1.2185 H           1 KR2       0.2000
     52 H22        -5.1780    6.5592   -1.8064 H           1 KR2       0.0467
     53 H23        -3.9759    7.6821   -1.2068 H           1 KR2       0.0467
     54 H24        -2.3723    4.9906   -0.0248 H           1 KR2       0.0522
     55 H25        -6.2973    5.8656    2.6740 H           1 KR2       0.0562
@<TRIPOS>BOND
     1     1     2  ar
     2     1     6  ar
     3     2     3  ar
     4     3     4  ar
     5     4     5  ar
     6     5     6  ar
     7     6     7   1
     8     7     8   2
     9     7     9  am
    10     9    10   1
    11     9    15   1
    12    10    11   1
    13    11    12   1
    14    12    13   1
    15    13    14   1
    16    14    15   1
    17    15    16  am
    18    16    17   2
    19    16    18   1
    20    18    19   1
    21    19    20   1
    22    19    21   1
    23    21    22   1
    24    22    23  ar
    25    22    29  ar
    26    23    24  ar
    27    24    25   1
    28    24    26  ar
    29    26    27   1
    30    26    28  ar
    31    28    29  ar
    32    29    30   1
    33     1    31   1
    34     2    32   1
    35     3    33   1
    36     4    34   1
    37     5    35   1
    38    10    36   1
    39    10    37   1
    40    11    38   1
    41    11    39   1
    42    12    40   1
    43    12    41   1
    44    13    42   1
    45    13    43   1
    46    14    44   1
    47    14    45   1
    48    18    46   1
    49    18    47   1
    50    19    48   1
    51    20    49   1
    52    20    50   1
    53    20    51   1
    54    21    52   1
    55    21    53   1
    56    23    54   1
    57    28    55   1
@<TRIPOS>SUBSTRUCTURE
     1  KR2      1

