@<TRIPOS>MOLECULE
2ole_ligand_046
    55    57
SMALL
GAST_HUCK
****
This file was generated by PARSER (from files_GN.cpp)

@<TRIPOS>ATOM
      1 CAY        -7.6269    3.6293   -6.9549 C.ar        1 KR2      -0.0419
      2 CBC        -8.7627    3.4733   -7.7722 C.ar        1 KR2      -0.0562
      3 CBB        -9.9753    4.0778   -7.4073 C.ar        1 KR2      -0.0575
      4 CBA       -10.0443    4.8648   -6.2425 C.ar        1 KR2      -0.0562
      5 CAZ        -8.9162    5.0022   -5.4180 C.ar        1 KR2      -0.0419
      6 CAX        -7.6960    4.3593   -5.7417 C.ar        1 KR2       0.0519
      7 CAW        -6.5691    4.5170   -4.9334 C.2         1 KR2       0.2286
      8 OAA        -6.3474    5.6683   -4.5627 O.2         1 KR2      -0.3825
      9 NAR        -5.7158    3.5440   -4.5530 N.am        1 KR2      -0.1656
     10 CAV        -6.1083    2.1407   -4.5353 C.3         1 KR2       0.0587
     11 CDD        -5.1639    1.1181   -3.8480 C.3         1 KR2      -0.0303
     12 CNN        -4.8971    1.4087   -2.3475 C.3         1 KR2      -0.0492
     13 CAT        -3.8880    2.5577   -2.1019 C.3         1 KR2      -0.0302
     14 CAS        -4.3364    3.9252   -2.6709 C.3         1 KR2       0.0592
     15 NAQ        -4.5009    3.8947   -4.1087 N.am        1 KR2      -0.1666
     16 CAO        -3.5378    4.1919   -5.0079 C.2         1 KR2       0.2052
     17 OAP        -3.7751    3.9788   -6.1946 O.2         1 KR2      -0.3947
     18 CAN        -2.2011    4.7209   -4.7350 C.3         1 KR2       0.0838
     19 CAL        -2.0582    6.2649   -4.4953 C.3         1 KR2       0.0010
     20 NAM        -2.0111    6.5974   -3.0617 N.4         1 KR2       0.2238
     21 CAK        -3.0978    7.2019   -5.1894 C.3         1 KR2       0.0243
     22 CAG        -3.0432    7.2497   -6.6801 C.ar        1 KR2      -0.0094
     23 CAH        -1.8944    7.7657   -7.3239 C.ar        1 KR2      -0.0298
     24 CAC        -1.8186    7.8745   -8.7258 C.ar        1 KR2       0.1544
     25 FAB        -0.7366    8.3515   -9.2797 F           1 KR2      -0.1895
     26 CAD        -2.9125    7.4824   -9.5136 C.ar        1 KR2       0.1560
     27 FAI        -2.8633    7.5800  -10.8110 F           1 KR2      -0.1911
     28 CAE        -4.0790    6.9932   -8.8969 C.ar        1 KR2      -0.0030
     29 CAF        -4.1461    6.8808   -7.4943 C.ar        1 KR2       0.1274
     30 FAJ        -5.2609    6.4446   -6.9771 F           1 KR2      -0.1934
     31 H1         -6.7449    3.2205   -7.2689 H           1 KR2       0.0669
     32 H2         -8.7028    2.9263   -8.6341 H           1 KR2       0.0629
     33 H3        -10.7993    3.9569   -7.9974 H           1 KR2       0.0653
     34 H4        -10.9131    5.3363   -5.9929 H           1 KR2       0.0629
     35 H5         -8.9960    5.5707   -4.5710 H           1 KR2       0.0669
     36 H6         -6.2407    1.7933   -5.5618 H           1 KR2       0.0545
     37 H7         -7.0805    2.0641   -4.0404 H           1 KR2       0.0545
     38 H8         -4.2157    1.0691   -4.3892 H           1 KR2       0.0285
     39 H9         -5.6292    0.1311   -3.9215 H           1 KR2       0.0285
     40 H10        -4.4844    0.5022   -1.8921 H           1 KR2       0.0267
     41 H11        -5.8369    1.6277   -1.8343 H           1 KR2       0.0267
     42 H12        -2.9218    2.2888   -2.5413 H           1 KR2       0.0285
     43 H13        -3.7385    2.6652   -1.0231 H           1 KR2       0.0285
     44 H14        -3.6066    4.6695   -2.3652 H           1 KR2       0.0546
     45 H15        -5.2731    4.2162   -2.1872 H           1 KR2       0.0546
     46 H16        -1.5511    4.4797   -5.5862 H           1 KR2       0.0561
     47 H17        -1.7652    4.1708   -3.8989 H           1 KR2       0.0561
     48 H18        -1.0631    6.5464   -4.8526 H           1 KR2       0.0898
     49 H19        -1.6491    7.5474   -2.9612 H           1 KR2       0.2000
     50 H20        -1.3773    5.9504   -2.5860 H           1 KR2       0.2000
     51 H21        -2.9441    6.5469   -2.6480 H           1 KR2       0.2000
     52 H22        -2.9392    8.2306   -4.8452 H           1 KR2       0.0467
     53 H23        -4.0881    6.9247   -4.8347 H           1 KR2       0.0467
     54 H24        -1.1050    8.0913   -6.7638 H           1 KR2       0.0522
     55 H25        -4.8834    6.7227   -9.4722 H           1 KR2       0.0562
@<TRIPOS>BOND
     1     1     2  ar
     2     1     6  ar
     3     2     3  ar
     4     3     4  ar
     5     4     5  ar
     6     5     6  ar
     7     6     7   1
     8     7     8   2
     9     7     9  am
    10     9    10   1
    11     9    15   1
    12    10    11   1
    13    11    12   1
    14    12    13   1
    15    13    14   1
    16    14    15   1
    17    15    16  am
    18    16    17   2
    19    16    18   1
    20    18    19   1
    21    19    20   1
    22    19    21   1
    23    21    22   1
    24    22    23  ar
    25    22    29  ar
    26    23    24  ar
    27    24    25   1
    28    24    26  ar
    29    26    27   1
    30    26    28  ar
    31    28    29  ar
    32    29    30   1
    33     1    31   1
    34     2    32   1
    35     3    33   1
    36     4    34   1
    37     5    35   1
    38    10    36   1
    39    10    37   1
    40    11    38   1
    41    11    39   1
    42    12    40   1
    43    12    41   1
    44    13    42   1
    45    13    43   1
    46    14    44   1
    47    14    45   1
    48    18    46   1
    49    18    47   1
    50    19    48   1
    51    20    49   1
    52    20    50   1
    53    20    51   1
    54    21    52   1
    55    21    53   1
    56    23    54   1
    57    28    55   1
@<TRIPOS>SUBSTRUCTURE
     1  KR2      1

