@<TRIPOS>MOLECULE
2ole_ligand_057
    55    57
SMALL
GAST_HUCK
****
This file was generated by PARSER (from files_GN.cpp)

@<TRIPOS>ATOM
      1 CAY        -7.7696    3.8281   -7.9493 C.ar        1 KR2      -0.0419
      2 CBC        -8.6552    3.9741   -9.0249 C.ar        1 KR2      -0.0562
      3 CBB        -8.5037    3.1845  -10.1794 C.ar        1 KR2      -0.0575
      4 CBA        -7.4716    2.2300  -10.2429 C.ar        1 KR2      -0.0562
      5 CAZ        -6.5857    2.0750   -9.1612 C.ar        1 KR2      -0.0419
      6 CAX        -6.7088    2.8869   -8.0089 C.ar        1 KR2       0.0519
      7 CAW        -5.8283    2.7708   -6.9433 C.2         1 KR2       0.2286
      8 OAA        -6.3030    2.2332   -5.9435 O.2         1 KR2      -0.3825
      9 NAR        -4.5873    3.2980   -6.8971 N.am        1 KR2      -0.1656
     10 CAV        -3.9856    3.9848   -8.0304 C.3         1 KR2       0.0587
     11 CDD        -2.5479    4.5603   -7.8642 C.3         1 KR2      -0.0303
     12 CNN        -1.4672    3.4871   -7.5583 C.3         1 KR2      -0.0492
     13 CAT        -1.4716    2.9663   -6.0969 C.3         1 KR2      -0.0302
     14 CAS        -2.8229    2.3563   -5.6422 C.3         1 KR2       0.0592
     15 NAQ        -3.9135    3.3059   -5.7358 N.am        1 KR2      -0.1666
     16 CAO        -4.2456    4.2049   -4.7850 C.2         1 KR2       0.2052
     17 OAP        -5.2515    4.8800   -4.9679 O.2         1 KR2      -0.3947
     18 CAN        -3.6534    4.3443   -3.4560 C.3         1 KR2       0.0838
     19 CAL        -3.3071    5.8180   -3.0376 C.3         1 KR2       0.0010
     20 NAM        -2.1230    6.2910   -3.7823 N.4         1 KR2       0.2238
     21 CAK        -3.0554    5.9506   -1.5054 C.3         1 KR2       0.0243
     22 CAG        -4.1742    5.7672   -0.5114 C.ar        1 KR2      -0.0094
     23 CAH        -3.8147    5.5604    0.8456 C.ar        1 KR2      -0.0298
     24 CAC        -4.7785    5.5071    1.8708 C.ar        1 KR2       0.1544
     25 FAB        -4.3933    5.3521    3.1116 F           1 KR2      -0.1895
     26 CAD        -6.1432    5.6523    1.5593 C.ar        1 KR2       0.1560
     27 FAI        -7.0420    5.6541    2.5070 F           1 KR2      -0.1911
     28 CAE        -6.5295    5.8338    0.2176 C.ar        1 KR2      -0.0030
     29 CAF        -5.5647    5.8918   -0.8069 C.ar        1 KR2       0.1274
     30 FAJ        -6.0249    6.0873   -2.0081 F           1 KR2      -0.1934
     31 H1         -7.8886    4.4202   -7.1235 H           1 KR2       0.0669
     32 H2         -9.4129    4.6594   -8.9734 H           1 KR2       0.0629
     33 H3         -9.1444    3.3004  -10.9685 H           1 KR2       0.0653
     34 H4         -7.3666    1.6482  -11.0792 H           1 KR2       0.0629
     35 H5         -5.8534    1.3604   -9.2194 H           1 KR2       0.0669
     36 H6         -4.6345    4.8192   -8.3137 H           1 KR2       0.0545
     37 H7         -3.9500    3.2924   -8.8722 H           1 KR2       0.0545
     38 H8         -2.5450    5.3216   -7.0786 H           1 KR2       0.0285
     39 H9         -2.2766    5.0595   -8.7999 H           1 KR2       0.0285
     40 H10        -0.4841    3.9272   -7.7522 H           1 KR2       0.0267
     41 H11        -1.5838    2.6454   -8.2477 H           1 KR2       0.0267
     42 H12        -1.1942    3.7788   -5.4225 H           1 KR2       0.0285
     43 H13        -0.7020    2.1954   -6.0126 H           1 KR2       0.0285
     44 H14        -2.7243    1.9601   -4.6271 H           1 KR2       0.0546
     45 H15        -3.0334    1.4879   -6.2762 H           1 KR2       0.0546
     46 H16        -2.7446    3.7559   -3.3517 H           1 KR2       0.0561
     47 H17        -4.3741    3.9191   -2.7557 H           1 KR2       0.0561
     48 H18        -4.0960    6.5173   -3.3149 H           1 KR2       0.0898
     49 H19        -1.9486    7.2824   -3.5802 H           1 KR2       0.2000
     50 H20        -2.2769    6.1837   -4.7908 H           1 KR2       0.2000
     51 H21        -1.3056    5.7461   -3.5009 H           1 KR2       0.2000
     52 H22        -2.6495    6.9495   -1.3141 H           1 KR2       0.0467
     53 H23        -2.2615    5.2325   -1.2684 H           1 KR2       0.0467
     54 H24        -2.8283    5.4735    1.1114 H           1 KR2       0.0522
     55 H25        -7.5240    5.9428   -0.0129 H           1 KR2       0.0562
@<TRIPOS>BOND
     1     1     2  ar
     2     1     6  ar
     3     2     3  ar
     4     3     4  ar
     5     4     5  ar
     6     5     6  ar
     7     6     7   1
     8     7     8   2
     9     7     9  am
    10     9    10   1
    11     9    15   1
    12    10    11   1
    13    11    12   1
    14    12    13   1
    15    13    14   1
    16    14    15   1
    17    15    16  am
    18    16    17   2
    19    16    18   1
    20    18    19   1
    21    19    20   1
    22    19    21   1
    23    21    22   1
    24    22    23  ar
    25    22    29  ar
    26    23    24  ar
    27    24    25   1
    28    24    26  ar
    29    26    27   1
    30    26    28  ar
    31    28    29  ar
    32    29    30   1
    33     1    31   1
    34     2    32   1
    35     3    33   1
    36     4    34   1
    37     5    35   1
    38    10    36   1
    39    10    37   1
    40    11    38   1
    41    11    39   1
    42    12    40   1
    43    12    41   1
    44    13    42   1
    45    13    43   1
    46    14    44   1
    47    14    45   1
    48    18    46   1
    49    18    47   1
    50    19    48   1
    51    20    49   1
    52    20    50   1
    53    20    51   1
    54    21    52   1
    55    21    53   1
    56    23    54   1
    57    28    55   1
@<TRIPOS>SUBSTRUCTURE
     1  KR2      1

