@<TRIPOS>MOLECULE
2ole_ligand_072
    55    57
SMALL
GAST_HUCK
****
This file was generated by PARSER (from files_GN.cpp)

@<TRIPOS>ATOM
      1 CAY        -2.9163   -0.3751   -6.9419 C.ar        1 KR2      -0.0419
      2 CBC        -1.6110   -0.7029   -7.3526 C.ar        1 KR2      -0.0562
      3 CBB        -0.6871    0.3164   -7.6369 C.ar        1 KR2      -0.0575
      4 CBA        -1.0692    1.6625   -7.5117 C.ar        1 KR2      -0.0562
      5 CAZ        -2.3765    1.9887   -7.1051 C.ar        1 KR2      -0.0419
      6 CAX        -3.3211    0.9770   -6.8037 C.ar        1 KR2       0.0519
      7 CAW        -4.6383    1.2692   -6.4514 C.2         1 KR2       0.2286
      8 OAA        -5.4908    0.7606   -7.1727 O.2         1 KR2      -0.3825
      9 NAR        -5.0258    1.9624   -5.3614 N.am        1 KR2      -0.1656
     10 CAV        -6.4146    2.0577   -4.9494 C.3         1 KR2       0.0587
     11 CDD        -6.8722    0.7752   -4.2079 C.3         1 KR2      -0.0303
     12 CNN        -6.0579    0.4535   -2.9238 C.3         1 KR2      -0.0492
     13 CAT        -4.5249    0.2982   -3.1433 C.3         1 KR2      -0.0302
     14 CAS        -3.7786    1.6517   -3.3454 C.3         1 KR2       0.0592
     15 NAQ        -4.1560    2.4734   -4.4865 N.am        1 KR2      -0.1666
     16 CAO        -3.7789    3.7621   -4.6154 C.2         1 KR2       0.2052
     17 OAP        -4.1289    4.3544   -5.6270 O.2         1 KR2      -0.3947
     18 CAN        -3.0981    4.5502   -3.5893 C.3         1 KR2       0.0838
     19 CAL        -2.5131    5.9622   -3.9283 C.3         1 KR2       0.0010
     20 NAM        -2.0322    6.5431   -2.6588 N.4         1 KR2       0.2238
     21 CAK        -3.4560    7.0089   -4.6276 C.3         1 KR2       0.0243
     22 CAG        -3.2814    7.1291   -6.1093 C.ar        1 KR2      -0.0094
     23 CAH        -2.0416    7.5737   -6.6328 C.ar        1 KR2      -0.0298
     24 CAC        -1.8009    7.6096   -8.0178 C.ar        1 KR2       0.1544
     25 FAB        -0.6289    7.9770   -8.4596 F           1 KR2      -0.1895
     26 CAD        -2.8223    7.2449   -8.9142 C.ar        1 KR2       0.1560
     27 FAI        -2.6127    7.2572  -10.2021 F           1 KR2      -0.1911
     28 CAE        -4.0871    6.8766   -8.4171 C.ar        1 KR2      -0.0030
     29 CAF        -4.3172    6.8184   -7.0283 C.ar        1 KR2       0.1274
     30 FAJ        -5.4965    6.4288   -6.6236 F           1 KR2      -0.1934
     31 H1         -3.5724   -1.1357   -6.7462 H           1 KR2       0.0669
     32 H2         -1.3381   -1.6834   -7.4564 H           1 KR2       0.0629
     33 H3          0.2578    0.0793   -7.9470 H           1 KR2       0.0653
     34 H4         -0.4031    2.4032   -7.7424 H           1 KR2       0.0629
     35 H5         -2.6381    2.9714   -7.0812 H           1 KR2       0.0669
     36 H6         -7.0602    2.2438   -5.8121 H           1 KR2       0.0545
     37 H7         -6.5650    2.9093   -4.2757 H           1 KR2       0.0545
     38 H8         -6.8129   -0.0770   -4.8891 H           1 KR2       0.0285
     39 H9         -7.9232    0.8954   -3.9313 H           1 KR2       0.0285
     40 H10        -6.4426   -0.4859   -2.5146 H           1 KR2       0.0267
     41 H11        -6.2400    1.2288   -2.1753 H           1 KR2       0.0267
     42 H12        -4.3394   -0.3639   -3.9940 H           1 KR2       0.0285
     43 H13        -4.1026   -0.1936   -2.2602 H           1 KR2       0.0285
     44 H14        -2.7146    1.4237   -3.4391 H           1 KR2       0.0546
     45 H15        -3.9187    2.2151   -2.4192 H           1 KR2       0.0546
     46 H16        -2.2629    3.9553   -3.2157 H           1 KR2       0.0561
     47 H17        -3.8093    4.6714   -2.7730 H           1 KR2       0.0561
     48 H18        -1.6208    5.8069   -4.5381 H           1 KR2       0.0898
     49 H19        -1.6235    7.4640   -2.8196 H           1 KR2       0.2000
     50 H20        -1.3182    5.9329   -2.2613 H           1 KR2       0.2000
     51 H21        -2.8120    6.6368   -2.0031 H           1 KR2       0.2000
     52 H22        -3.2718    8.0110   -4.2234 H           1 KR2       0.0467
     53 H23        -4.4910    6.7751   -4.3620 H           1 KR2       0.0467
     54 H24        -1.2918    7.8554   -5.9981 H           1 KR2       0.0522
     55 H25        -4.8424    6.6364   -9.0700 H           1 KR2       0.0562
@<TRIPOS>BOND
     1     1     2  ar
     2     1     6  ar
     3     2     3  ar
     4     3     4  ar
     5     4     5  ar
     6     5     6  ar
     7     6     7   1
     8     7     8   2
     9     7     9  am
    10     9    10   1
    11     9    15   1
    12    10    11   1
    13    11    12   1
    14    12    13   1
    15    13    14   1
    16    14    15   1
    17    15    16  am
    18    16    17   2
    19    16    18   1
    20    18    19   1
    21    19    20   1
    22    19    21   1
    23    21    22   1
    24    22    23  ar
    25    22    29  ar
    26    23    24  ar
    27    24    25   1
    28    24    26  ar
    29    26    27   1
    30    26    28  ar
    31    28    29  ar
    32    29    30   1
    33     1    31   1
    34     2    32   1
    35     3    33   1
    36     4    34   1
    37     5    35   1
    38    10    36   1
    39    10    37   1
    40    11    38   1
    41    11    39   1
    42    12    40   1
    43    12    41   1
    44    13    42   1
    45    13    43   1
    46    14    44   1
    47    14    45   1
    48    18    46   1
    49    18    47   1
    50    19    48   1
    51    20    49   1
    52    20    50   1
    53    20    51   1
    54    21    52   1
    55    21    53   1
    56    23    54   1
    57    28    55   1
@<TRIPOS>SUBSTRUCTURE
     1  KR2      1

