@<TRIPOS>MOLECULE
2ole_ligand_042
    55    57
SMALL
GAST_HUCK
****
This file was generated by PARSER (from files_GN.cpp)

@<TRIPOS>ATOM
      1 CAY        -5.7544    1.6643   -8.7388 C.ar        1 KR2      -0.0419
      2 CBC        -6.4762    0.4951   -9.0494 C.ar        1 KR2      -0.0562
      3 CBB        -7.3672   -0.0565   -8.1118 C.ar        1 KR2      -0.0575
      4 CBA        -7.5387    0.5603   -6.8614 C.ar        1 KR2      -0.0562
      5 CAZ        -6.8222    1.7317   -6.5476 C.ar        1 KR2      -0.0419
      6 CAX        -5.9191    2.2937   -7.4806 C.ar        1 KR2       0.0519
      7 CAW        -5.2424    3.4581   -7.1527 C.2         1 KR2       0.2286
      8 OAA        -5.9252    4.4749   -7.2182 O.2         1 KR2      -0.3825
      9 NAR        -3.9822    3.5137   -6.6743 N.am        1 KR2      -0.1656
     10 CAV        -3.1123    2.3494   -6.6708 C.3         1 KR2       0.0587
     11 CDD        -1.6424    2.5222   -6.1877 C.3         1 KR2      -0.0303
     12 CNN        -0.8062    3.5175   -7.0370 C.3         1 KR2      -0.0492
     13 CAT        -1.1296    5.0089   -6.7587 C.3         1 KR2      -0.0302
     14 CAS        -2.6043    5.3857   -7.0369 C.3         1 KR2       0.0592
     15 NAQ        -3.5169    4.6682   -6.1748 N.am        1 KR2      -0.1666
     16 CAO        -3.8956    5.0618   -4.9345 C.2         1 KR2       0.2052
     17 OAP        -4.7909    4.4297   -4.3921 O.2         1 KR2      -0.3947
     18 CAN        -3.5428    6.3101   -4.2362 C.3         1 KR2       0.0838
     19 CAL        -3.3544    6.3419   -2.6685 C.3         1 KR2       0.0010
     20 NAM        -1.9404    6.5856   -2.3256 N.4         1 KR2       0.2238
     21 CAK        -3.8922    5.1429   -1.8244 C.3         1 KR2       0.0243
     22 CAG        -3.7340    5.3129   -0.3456 C.ar        1 KR2      -0.0094
     23 CAH        -2.7166    4.6164    0.3543 C.ar        1 KR2      -0.0298
     24 CAC        -2.5658    4.7644    1.7450 C.ar        1 KR2       0.1544
     25 FAB        -1.6020    4.1215    2.3525 F           1 KR2      -0.1895
     26 CAD        -3.4335    5.6132    2.4617 C.ar        1 KR2       0.1560
     27 FAI        -3.3105    5.7733    3.7522 F           1 KR2      -0.1911
     28 CAE        -4.4485    6.3073    1.7845 C.ar        1 KR2      -0.0030
     29 CAF        -4.5990    6.1598    0.3907 C.ar        1 KR2       0.1274
     30 FAJ        -5.5652    6.8202   -0.1929 F           1 KR2      -0.1934
     31 H1         -5.1184    2.0560   -9.4377 H           1 KR2       0.0669
     32 H2         -6.3599    0.0467   -9.9622 H           1 KR2       0.0629
     33 H3         -7.8938   -0.9073   -8.3397 H           1 KR2       0.0653
     34 H4         -8.1898    0.1637   -6.1802 H           1 KR2       0.0629
     35 H5         -6.9676    2.1679   -5.6345 H           1 KR2       0.0669
     36 H6         -3.0633    1.9648   -7.6891 H           1 KR2       0.0545
     37 H7         -3.5675    1.5756   -6.0448 H           1 KR2       0.0545
     38 H8         -1.1523    1.5472   -6.2438 H           1 KR2       0.0285
     39 H9         -1.6289    2.8322   -5.1385 H           1 KR2       0.0285
     40 H10        -0.9434    3.3078   -8.1029 H           1 KR2       0.0267
     41 H11         0.2530    3.3665   -6.8138 H           1 KR2       0.0267
     42 H12        -0.4949    5.6230   -7.4044 H           1 KR2       0.0285
     43 H13        -0.8843    5.2472   -5.7217 H           1 KR2       0.0285
     44 H14        -2.8236    5.1447   -8.0803 H           1 KR2       0.0546
     45 H15        -2.7416    6.4670   -6.9592 H           1 KR2       0.0546
     46 H16        -4.3421    7.0187   -4.4777 H           1 KR2       0.0561
     47 H17        -2.6436    6.7470   -4.6698 H           1 KR2       0.0561
     48 H18        -3.8766    7.2368   -2.3078 H           1 KR2       0.0898
     49 H19        -1.8270    6.6124   -1.3059 H           1 KR2       0.2000
     50 H20        -1.6475    7.4908   -2.7038 H           1 KR2       0.2000
     51 H21        -1.3523    5.8460   -2.7063 H           1 KR2       0.2000
     52 H22        -3.3861    4.2306   -2.1553 H           1 KR2       0.0467
     53 H23        -4.9600    5.0028   -2.0168 H           1 KR2       0.0467
     54 H24        -2.0646    4.0109   -0.1531 H           1 KR2       0.0522
     55 H25        -5.0813    6.9235    2.3047 H           1 KR2       0.0562
@<TRIPOS>BOND
     1     1     2  ar
     2     1     6  ar
     3     2     3  ar
     4     3     4  ar
     5     4     5  ar
     6     5     6  ar
     7     6     7   1
     8     7     8   2
     9     7     9  am
    10     9    10   1
    11     9    15   1
    12    10    11   1
    13    11    12   1
    14    12    13   1
    15    13    14   1
    16    14    15   1
    17    15    16  am
    18    16    17   2
    19    16    18   1
    20    18    19   1
    21    19    20   1
    22    19    21   1
    23    21    22   1
    24    22    23  ar
    25    22    29  ar
    26    23    24  ar
    27    24    25   1
    28    24    26  ar
    29    26    27   1
    30    26    28  ar
    31    28    29  ar
    32    29    30   1
    33     1    31   1
    34     2    32   1
    35     3    33   1
    36     4    34   1
    37     5    35   1
    38    10    36   1
    39    10    37   1
    40    11    38   1
    41    11    39   1
    42    12    40   1
    43    12    41   1
    44    13    42   1
    45    13    43   1
    46    14    44   1
    47    14    45   1
    48    18    46   1
    49    18    47   1
    50    19    48   1
    51    20    49   1
    52    20    50   1
    53    20    51   1
    54    21    52   1
    55    21    53   1
    56    23    54   1
    57    28    55   1
@<TRIPOS>SUBSTRUCTURE
     1  KR2      1

