@<TRIPOS>MOLECULE
2ole_ligand_077
    55    57
SMALL
GAST_HUCK
****
This file was generated by PARSER (from files_GN.cpp)

@<TRIPOS>ATOM
      1 CAY        -6.5879    0.5956   -4.5629 C.ar        1 KR2      -0.0419
      2 CBC        -6.8711    0.1973   -3.2425 C.ar        1 KR2      -0.0562
      3 CBB        -5.8244   -0.0087   -2.3288 C.ar        1 KR2      -0.0575
      4 CBA        -4.4934    0.1594   -2.7443 C.ar        1 KR2      -0.0562
      5 CAZ        -4.2119    0.5458   -4.0681 C.ar        1 KR2      -0.0419
      6 CAX        -5.2502    0.8001   -4.9972 C.ar        1 KR2       0.0519
      7 CAW        -4.9857    1.2171   -6.3101 C.2         1 KR2       0.2286
      8 OAA        -5.6644    0.6650   -7.1699 O.2         1 KR2      -0.3825
      9 NAR        -4.1017    2.1797   -6.6783 N.am        1 KR2      -0.1656
     10 CAV        -3.9416    2.5010   -8.0938 C.3         1 KR2       0.0587
     11 CDD        -2.9454    3.6203   -8.5058 C.3         1 KR2      -0.0303
     12 CNN        -1.4665    3.3053   -8.1697 C.3         1 KR2      -0.0492
     13 CAT        -1.1193    3.4647   -6.6707 C.3         1 KR2      -0.0302
     14 CAS        -1.9749    2.5815   -5.7326 C.3         1 KR2       0.0592
     15 NAQ        -3.3993    2.8845   -5.7738 N.am        1 KR2      -0.1666
     16 CAO        -4.0259    3.7854   -4.9833 C.2         1 KR2       0.2052
     17 OAP        -5.2411    3.9038   -5.1022 O.2         1 KR2      -0.3947
     18 CAN        -3.4673    4.5460   -3.8537 C.3         1 KR2       0.0838
     19 CAL        -2.9089    5.9730   -4.1699 C.3         1 KR2       0.0010
     20 NAM        -2.2471    6.4654   -2.9470 N.4         1 KR2       0.2238
     21 CAK        -3.9650    7.0112   -4.6827 C.3         1 KR2       0.0243
     22 CAG        -4.0087    7.1590   -6.1728 C.ar        1 KR2      -0.0094
     23 CAH        -4.9534    6.4323   -6.9383 C.ar        1 KR2      -0.0298
     24 CAC        -4.9925    6.5350   -8.3416 C.ar        1 KR2       0.1544
     25 FAB        -5.8432    5.8096   -9.0161 F           1 KR2      -0.1895
     26 CAD        -4.1158    7.4174   -9.0023 C.ar        1 KR2       0.1560
     27 FAI        -4.1562    7.5412  -10.2999 F           1 KR2      -0.1911
     28 CAE        -3.2007    8.1787   -8.2548 C.ar        1 KR2      -0.0030
     29 CAF        -3.1338    8.0428   -6.8546 C.ar        1 KR2       0.1274
     30 FAJ        -2.2630    8.7751   -6.2100 F           1 KR2      -0.1934
     31 H1         -7.3715    0.7497   -5.2008 H           1 KR2       0.0669
     32 H2         -7.8402    0.0591   -2.9470 H           1 KR2       0.0629
     33 H3         -6.0283   -0.2930   -1.3680 H           1 KR2       0.0653
     34 H4         -3.7259   -0.0087   -2.0871 H           1 KR2       0.0629
     35 H5         -3.2318    0.6105   -4.3468 H           1 KR2       0.0669
     36 H6         -4.9195    2.8010   -8.4882 H           1 KR2       0.0545
     37 H7         -3.6425    1.5905   -8.6249 H           1 KR2       0.0545
     38 H8         -3.2369    4.5588   -8.0329 H           1 KR2       0.0285
     39 H9         -3.0243    3.7613   -9.5874 H           1 KR2       0.0285
     40 H10        -0.8331    3.9990   -8.7281 H           1 KR2       0.0267
     41 H11        -1.2156    2.2950   -8.4957 H           1 KR2       0.0267
     42 H12        -1.2283    4.5168   -6.3965 H           1 KR2       0.0285
     43 H13        -0.0672    3.2058   -6.5286 H           1 KR2       0.0285
     44 H14        -1.5756    2.6546   -4.7209 H           1 KR2       0.0546
     45 H15        -1.8058    1.5420   -6.0301 H           1 KR2       0.0546
     46 H16        -2.6978    3.9516   -3.3595 H           1 KR2       0.0561
     47 H17        -4.2421    4.6678   -3.0864 H           1 KR2       0.0561
     48 H18        -2.1002    5.8962   -4.8977 H           1 KR2       0.0898
     49 H19        -1.8343    7.3815   -3.1247 H           1 KR2       0.2000
     50 H20        -1.4988    5.8128   -2.6867 H           1 KR2       0.2000
     51 H21        -2.9229    6.5356   -2.1852 H           1 KR2       0.2000
     52 H22        -3.7469    7.9971   -4.2619 H           1 KR2       0.0467
     53 H23        -4.9562    6.7516   -4.3017 H           1 KR2       0.0467
     54 H24        -5.6318    5.8237   -6.4758 H           1 KR2       0.0522
     55 H25        -2.5802    8.8359   -8.7349 H           1 KR2       0.0562
@<TRIPOS>BOND
     1     1     2  ar
     2     1     6  ar
     3     2     3  ar
     4     3     4  ar
     5     4     5  ar
     6     5     6  ar
     7     6     7   1
     8     7     8   2
     9     7     9  am
    10     9    10   1
    11     9    15   1
    12    10    11   1
    13    11    12   1
    14    12    13   1
    15    13    14   1
    16    14    15   1
    17    15    16  am
    18    16    17   2
    19    16    18   1
    20    18    19   1
    21    19    20   1
    22    19    21   1
    23    21    22   1
    24    22    23  ar
    25    22    29  ar
    26    23    24  ar
    27    24    25   1
    28    24    26  ar
    29    26    27   1
    30    26    28  ar
    31    28    29  ar
    32    29    30   1
    33     1    31   1
    34     2    32   1
    35     3    33   1
    36     4    34   1
    37     5    35   1
    38    10    36   1
    39    10    37   1
    40    11    38   1
    41    11    39   1
    42    12    40   1
    43    12    41   1
    44    13    42   1
    45    13    43   1
    46    14    44   1
    47    14    45   1
    48    18    46   1
    49    18    47   1
    50    19    48   1
    51    20    49   1
    52    20    50   1
    53    20    51   1
    54    21    52   1
    55    21    53   1
    56    23    54   1
    57    28    55   1
@<TRIPOS>SUBSTRUCTURE
     1  KR2      1

