@<TRIPOS>MOLECULE
2ole_ligand_006
    55    57
SMALL
GAST_HUCK
****
This file was generated by PARSER (from files_GN.cpp)

@<TRIPOS>ATOM
      1 CAY        -7.4914    4.0946   -9.0548 C.ar        1 KR2      -0.0419
      2 CBC        -8.7863    3.8136   -9.5215 C.ar        1 KR2      -0.0562
      3 CBB        -9.8573    3.7130   -8.6163 C.ar        1 KR2      -0.0575
      4 CBA        -9.6322    3.8941   -7.2404 C.ar        1 KR2      -0.0562
      5 CAZ        -8.3406    4.1919   -6.7746 C.ar        1 KR2      -0.0419
      6 CAX        -7.2466    4.2781   -7.6718 C.ar        1 KR2       0.0519
      7 CAW        -5.9735    4.6092   -7.2158 C.2         1 KR2       0.2286
      8 OAA        -5.4605    5.5820   -7.7633 O.2         1 KR2      -0.3825
      9 NAR        -5.2939    3.9648   -6.2413 N.am        1 KR2      -0.1656
     10 CAV        -5.7427    2.6814   -5.7147 C.3         1 KR2       0.0587
     11 CDD        -4.8354    1.8739   -4.7515 C.3         1 KR2      -0.0303
     12 CNN        -3.4519    1.4870   -5.3298 C.3         1 KR2      -0.0492
     13 CAT        -2.4498    2.6629   -5.4182 C.3         1 KR2      -0.0302
     14 CAS        -2.9363    3.8119   -6.3347 C.3         1 KR2       0.0592
     15 NAQ        -4.1256    4.4611   -5.8176 N.am        1 KR2      -0.1666
     16 CAO        -4.1048    5.5454   -5.0083 C.2         1 KR2       0.2052
     17 OAP        -5.1647    6.1148   -4.7699 O.2         1 KR2      -0.3947
     18 CAN        -2.9423    6.0981   -4.3079 C.3         1 KR2       0.0838
     19 CAL        -3.1195    6.2530   -2.7629 C.3         1 KR2       0.0010
     20 NAM        -1.8471    6.6940   -2.1709 N.4         1 KR2       0.2238
     21 CAK        -3.5982    4.9530   -2.0375 C.3         1 KR2       0.0243
     22 CAG        -4.4128    5.2176   -0.8175 C.ar        1 KR2      -0.0094
     23 CAH        -3.8889    4.9584    0.4673 C.ar        1 KR2      -0.0298
     24 CAC        -4.6648    5.1726    1.6197 C.ar        1 KR2       0.1544
     25 FAB        -4.1562    4.9218    2.7967 F           1 KR2      -0.1895
     26 CAD        -5.9842    5.6481    1.5019 C.ar        1 KR2       0.1560
     27 FAI        -6.7194    5.8552    2.5622 F           1 KR2      -0.1911
     28 CAE        -6.5205    5.9115    0.2284 C.ar        1 KR2      -0.0030
     29 CAF        -5.7436    5.6973   -0.9244 C.ar        1 KR2       0.1274
     30 FAJ        -6.2938    5.9444   -2.0852 F           1 KR2      -0.1934
     31 H1         -6.7239    4.1608   -9.7294 H           1 KR2       0.0669
     32 H2         -8.9515    3.6894  -10.5218 H           1 KR2       0.0629
     33 H3        -10.7977    3.5156   -8.9542 H           1 KR2       0.0653
     34 H4        -10.4074    3.8360   -6.5804 H           1 KR2       0.0629
     35 H5         -8.2181    4.3656   -5.7763 H           1 KR2       0.0669
     36 H6         -5.9799    2.0243   -6.5552 H           1 KR2       0.0545
     37 H7         -6.6631    2.8363   -5.1560 H           1 KR2       0.0545
     38 H8         -5.3638    0.9520   -4.4947 H           1 KR2       0.0285
     39 H9         -4.7056    2.4257   -3.8228 H           1 KR2       0.0285
     40 H10        -3.5820    1.0401   -6.3182 H           1 KR2       0.0267
     41 H11        -3.0135    0.7233   -4.6837 H           1 KR2       0.0267
     42 H12        -1.5042    2.2815   -5.8145 H           1 KR2       0.0285
     43 H13        -2.2504    3.0438   -4.4143 H           1 KR2       0.0285
     44 H14        -3.1379    3.3985   -7.3275 H           1 KR2       0.0546
     45 H15        -2.1292    4.5303   -6.4897 H           1 KR2       0.0546
     46 H16        -2.7452    7.0858   -4.7360 H           1 KR2       0.0561
     47 H17        -2.0459    5.4999   -4.4700 H           1 KR2       0.0561
     48 H18        -3.8374    7.0611   -2.5960 H           1 KR2       0.0898
     49 H19        -1.9329    6.7576   -1.1580 H           1 KR2       0.2000
     50 H20        -1.5690    7.6033   -2.5372 H           1 KR2       0.2000
     51 H21        -1.1173    6.0171   -2.3965 H           1 KR2       0.2000
     52 H22        -2.7267    4.3291   -1.8128 H           1 KR2       0.0467
     53 H23        -4.2179    4.3514   -2.6948 H           1 KR2       0.0467
     54 H24        -2.9270    4.6173    0.5704 H           1 KR2       0.0522
     55 H25        -7.4765    6.2564    0.1377 H           1 KR2       0.0562
@<TRIPOS>BOND
     1     1     2  ar
     2     1     6  ar
     3     2     3  ar
     4     3     4  ar
     5     4     5  ar
     6     5     6  ar
     7     6     7   1
     8     7     8   2
     9     7     9  am
    10     9    10   1
    11     9    15   1
    12    10    11   1
    13    11    12   1
    14    12    13   1
    15    13    14   1
    16    14    15   1
    17    15    16  am
    18    16    17   2
    19    16    18   1
    20    18    19   1
    21    19    20   1
    22    19    21   1
    23    21    22   1
    24    22    23  ar
    25    22    29  ar
    26    23    24  ar
    27    24    25   1
    28    24    26  ar
    29    26    27   1
    30    26    28  ar
    31    28    29  ar
    32    29    30   1
    33     1    31   1
    34     2    32   1
    35     3    33   1
    36     4    34   1
    37     5    35   1
    38    10    36   1
    39    10    37   1
    40    11    38   1
    41    11    39   1
    42    12    40   1
    43    12    41   1
    44    13    42   1
    45    13    43   1
    46    14    44   1
    47    14    45   1
    48    18    46   1
    49    18    47   1
    50    19    48   1
    51    20    49   1
    52    20    50   1
    53    20    51   1
    54    21    52   1
    55    21    53   1
    56    23    54   1
    57    28    55   1
@<TRIPOS>SUBSTRUCTURE
     1  KR2      1

