@<TRIPOS>MOLECULE
2ole_ligand_009
    55    57
SMALL
GAST_HUCK
****
This file was generated by PARSER (from files_GN.cpp)

@<TRIPOS>ATOM
      1 CAY        -5.3647   -0.8077   -0.4200 C.ar        1 KR2      -0.0419
      2 CBC        -5.9948   -1.7890    0.3723 C.ar        1 KR2      -0.0562
      3 CBB        -5.6795   -3.1466    0.1934 C.ar        1 KR2      -0.0575
      4 CBA        -4.7253   -3.5232   -0.7681 C.ar        1 KR2      -0.0562
      5 CAZ        -4.0916   -2.5401   -1.5546 C.ar        1 KR2      -0.0419
      6 CAX        -4.4176   -1.1711   -1.4084 C.ar        1 KR2       0.0519
      7 CAW        -3.7356   -0.2001   -2.1469 C.2         1 KR2       0.2286
      8 OAA        -2.5130   -0.2380   -2.0342 O.2         1 KR2      -0.3825
      9 NAR        -4.2958    0.7736   -2.8946 N.am        1 KR2      -0.1656
     10 CAV        -5.7046    0.7829   -3.2650 C.3         1 KR2       0.0587
     11 CDD        -6.2014    1.8885   -4.2426 C.3         1 KR2      -0.0303
     12 CNN        -5.5154    1.8780   -5.6363 C.3         1 KR2      -0.0492
     13 CAT        -4.0807    2.4637   -5.6441 C.3         1 KR2      -0.0302
     14 CAS        -3.1037    1.7002   -4.7178 C.3         1 KR2       0.0592
     15 NAQ        -3.5217    1.7780   -3.3306 N.am        1 KR2      -0.1666
     16 CAO        -3.2998    2.8247   -2.5093 C.2         1 KR2       0.2052
     17 OAP        -3.8240    2.7905   -1.3950 O.2         1 KR2      -0.3947
     18 CAN        -2.4106    3.9734   -2.7039 C.3         1 KR2       0.0838
     19 CAL        -3.0561    5.3984   -2.8411 C.3         1 KR2       0.0010
     20 NAM        -2.0631    6.4544   -2.5405 N.4         1 KR2       0.2238
     21 CAK        -4.3960    5.6702   -2.0835 C.3         1 KR2       0.0243
     22 CAG        -4.5101    5.5224   -0.5999 C.ar        1 KR2      -0.0094
     23 CAH        -3.4002    5.2658    0.2455 C.ar        1 KR2      -0.0298
     24 CAC        -3.5537    5.0792    1.6303 C.ar        1 KR2       0.1544
     25 FAB        -2.5014    4.8239    2.3605 F           1 KR2      -0.1895
     26 CAD        -4.8339    5.1583    2.2081 C.ar        1 KR2       0.1560
     27 FAI        -4.9955    4.9741    3.4937 F           1 KR2      -0.1911
     28 CAE        -5.9471    5.4390    1.3987 C.ar        1 KR2      -0.0030
     29 CAF        -5.7918    5.6142    0.0096 C.ar        1 KR2       0.1274
     30 FAJ        -6.8649    5.8419   -0.6982 F           1 KR2      -0.1934
     31 H1         -5.5851    0.1743   -0.2407 H           1 KR2       0.0669
     32 H2         -6.6728   -1.5121    1.0863 H           1 KR2       0.0629
     33 H3         -6.1351   -3.8609    0.7690 H           1 KR2       0.0653
     34 H4         -4.4841   -4.5088   -0.8880 H           1 KR2       0.0629
     35 H5         -3.3897   -2.8379   -2.2356 H           1 KR2       0.0669
     36 H6         -6.3019    0.8877   -2.3588 H           1 KR2       0.0545
     37 H7         -5.9460   -0.1860   -3.7118 H           1 KR2       0.0545
     38 H8         -6.0716    2.8692   -3.7799 H           1 KR2       0.0285
     39 H9         -7.2765    1.7452   -4.3895 H           1 KR2       0.0285
     40 H10        -6.1222    2.4768   -6.3196 H           1 KR2       0.0267
     41 H11        -5.4971    0.8578   -6.0281 H           1 KR2       0.0267
     42 H12        -4.1158    3.5149   -5.3507 H           1 KR2       0.0285
     43 H13        -3.6938    2.4219   -6.6632 H           1 KR2       0.0285
     44 H14        -2.0883    2.0738   -4.8562 H           1 KR2       0.0546
     45 H15        -3.0733    0.6543   -5.0392 H           1 KR2       0.0546
     46 H16        -1.7850    3.8250   -3.5868 H           1 KR2       0.0561
     47 H17        -1.7063    3.9748   -1.8677 H           1 KR2       0.0561
     48 H18        -3.2855    5.5151   -3.9068 H           1 KR2       0.0898
     49 H19        -2.2273    7.2801   -3.1216 H           1 KR2       0.2000
     50 H20        -1.1282    6.1079   -2.7443 H           1 KR2       0.2000
     51 H21        -2.1040    6.7212   -1.5570 H           1 KR2       0.2000
     52 H22        -5.1402    5.0160   -2.5380 H           1 KR2       0.0467
     53 H23        -4.6959    6.6920   -2.3195 H           1 KR2       0.0467
     54 H24        -2.4560    5.2042   -0.1298 H           1 KR2       0.0522
     55 H25        -6.8745    5.5046    1.8202 H           1 KR2       0.0562
@<TRIPOS>BOND
     1     1     2  ar
     2     1     6  ar
     3     2     3  ar
     4     3     4  ar
     5     4     5  ar
     6     5     6  ar
     7     6     7   1
     8     7     8   2
     9     7     9  am
    10     9    10   1
    11     9    15   1
    12    10    11   1
    13    11    12   1
    14    12    13   1
    15    13    14   1
    16    14    15   1
    17    15    16  am
    18    16    17   2
    19    16    18   1
    20    18    19   1
    21    19    20   1
    22    19    21   1
    23    21    22   1
    24    22    23  ar
    25    22    29  ar
    26    23    24  ar
    27    24    25   1
    28    24    26  ar
    29    26    27   1
    30    26    28  ar
    31    28    29  ar
    32    29    30   1
    33     1    31   1
    34     2    32   1
    35     3    33   1
    36     4    34   1
    37     5    35   1
    38    10    36   1
    39    10    37   1
    40    11    38   1
    41    11    39   1
    42    12    40   1
    43    12    41   1
    44    13    42   1
    45    13    43   1
    46    14    44   1
    47    14    45   1
    48    18    46   1
    49    18    47   1
    50    19    48   1
    51    20    49   1
    52    20    50   1
    53    20    51   1
    54    21    52   1
    55    21    53   1
    56    23    54   1
    57    28    55   1
@<TRIPOS>SUBSTRUCTURE
     1  KR2      1

