@<TRIPOS>MOLECULE
2ole_ligand_078
    55    57
SMALL
GAST_HUCK
****
This file was generated by PARSER (from files_GN.cpp)

@<TRIPOS>ATOM
      1 CAY        -9.4689    2.7663   -6.4541 C.ar        1 KR2      -0.0419
      2 CBC       -10.2931    2.7027   -7.5935 C.ar        1 KR2      -0.0562
      3 CBB        -9.8939    3.3281   -8.7874 C.ar        1 KR2      -0.0575
      4 CBA        -8.6920    4.0570   -8.8301 C.ar        1 KR2      -0.0562
      5 CAZ        -7.8804    4.1400   -7.6818 C.ar        1 KR2      -0.0419
      6 CAX        -8.2333    3.4629   -6.4894 C.ar        1 KR2       0.0519
      7 CAW        -7.4510    3.5653   -5.3364 C.2         1 KR2       0.2286
      8 OAA        -8.0522    4.0032   -4.3646 O.2         1 KR2      -0.3825
      9 NAR        -6.1355    3.2658   -5.2235 N.am        1 KR2      -0.1656
     10 CAV        -5.4009    2.5743   -6.2780 C.3         1 KR2       0.0587
     11 CDD        -3.9080    2.2095   -6.0287 C.3         1 KR2      -0.0303
     12 CNN        -3.6622    1.1962   -4.8805 C.3         1 KR2      -0.0492
     13 CAT        -3.8070    1.8126   -3.4643 C.3         1 KR2      -0.0302
     14 CAS        -5.1958    2.4468   -3.2083 C.3         1 KR2       0.0592
     15 NAQ        -5.4804    3.5652   -4.0895 N.am        1 KR2      -0.1666
     16 CAO        -5.1061    4.8462   -3.8732 C.2         1 KR2       0.2052
     17 OAP        -5.5938    5.7155   -4.5857 O.2         1 KR2      -0.3947
     18 CAN        -4.2799    5.3821   -2.7905 C.3         1 KR2       0.0838
     19 CAL        -2.9469    6.1116   -3.1917 C.3         1 KR2       0.0010
     20 NAM        -2.6130    7.0906   -2.1319 N.4         1 KR2       0.2238
     21 CAK        -2.8516    6.8508   -4.5719 C.3         1 KR2       0.0243
     22 CAG        -2.5670    6.0007   -5.7692 C.ar        1 KR2      -0.0094
     23 CAH        -1.3460    5.2850   -5.8092 C.ar        1 KR2      -0.0298
     24 CAC        -0.9814    4.5248   -6.9356 C.ar        1 KR2       0.1544
     25 FAB         0.1529    3.8685   -6.9348 F           1 KR2      -0.1895
     26 CAD        -1.8224    4.4939   -8.0631 C.ar        1 KR2       0.1560
     27 FAI        -1.4932    3.8048   -9.1232 F           1 KR2      -0.1911
     28 CAE        -3.0294    5.2183   -8.0572 C.ar        1 KR2      -0.0030
     29 CAF        -3.3918    5.9819   -6.9273 C.ar        1 KR2       0.1274
     30 FAJ        -4.5018    6.6761   -6.9931 F           1 KR2      -0.1934
     31 H1         -9.7779    2.3014   -5.5999 H           1 KR2       0.0669
     32 H2        -11.1783    2.1954   -7.5533 H           1 KR2       0.0629
     33 H3        -10.4833    3.2598   -9.6163 H           1 KR2       0.0653
     34 H4         -8.4139    4.5262   -9.6941 H           1 KR2       0.0629
     35 H5         -7.0451    4.7248   -7.7192 H           1 KR2       0.0669
     36 H6         -5.4085    3.1998   -7.1704 H           1 KR2       0.0545
     37 H7         -5.9263    1.6530   -6.5397 H           1 KR2       0.0545
     38 H8         -3.3465    3.1194   -5.8189 H           1 KR2       0.0285
     39 H9         -3.4964    1.7840   -6.9473 H           1 KR2       0.0285
     40 H10        -2.6435    0.8110   -4.9663 H           1 KR2       0.0267
     41 H11        -4.3367    0.3400   -4.9836 H           1 KR2       0.0267
     42 H12        -3.0368    2.5685   -3.3162 H           1 KR2       0.0285
     43 H13        -3.6392    1.0270   -2.7196 H           1 KR2       0.0285
     44 H14        -5.2769    2.7423   -2.1606 H           1 KR2       0.0546
     45 H15        -5.9552    1.6633   -3.3406 H           1 KR2       0.0546
     46 H16        -3.9956    4.5968   -2.0905 H           1 KR2       0.0561
     47 H17        -4.9161    6.0708   -2.2204 H           1 KR2       0.0561
     48 H18        -2.1478    5.3676   -3.1574 H           1 KR2       0.0898
     49 H19        -1.8710    7.7215   -2.4474 H           1 KR2       0.2000
     50 H20        -2.2951    6.6088   -1.2894 H           1 KR2       0.2000
     51 H21        -3.4346    7.6531   -1.8979 H           1 KR2       0.2000
     52 H22        -2.0295    7.5666   -4.5392 H           1 KR2       0.0467
     53 H23        -3.7500    7.4498   -4.7098 H           1 KR2       0.0467
     54 H24        -0.7022    5.3191   -5.0187 H           1 KR2       0.0522
     55 H25        -3.6310    5.2087   -8.8818 H           1 KR2       0.0562
@<TRIPOS>BOND
     1     1     2  ar
     2     1     6  ar
     3     2     3  ar
     4     3     4  ar
     5     4     5  ar
     6     5     6  ar
     7     6     7   1
     8     7     8   2
     9     7     9  am
    10     9    10   1
    11     9    15   1
    12    10    11   1
    13    11    12   1
    14    12    13   1
    15    13    14   1
    16    14    15   1
    17    15    16  am
    18    16    17   2
    19    16    18   1
    20    18    19   1
    21    19    20   1
    22    19    21   1
    23    21    22   1
    24    22    23  ar
    25    22    29  ar
    26    23    24  ar
    27    24    25   1
    28    24    26  ar
    29    26    27   1
    30    26    28  ar
    31    28    29  ar
    32    29    30   1
    33     1    31   1
    34     2    32   1
    35     3    33   1
    36     4    34   1
    37     5    35   1
    38    10    36   1
    39    10    37   1
    40    11    38   1
    41    11    39   1
    42    12    40   1
    43    12    41   1
    44    13    42   1
    45    13    43   1
    46    14    44   1
    47    14    45   1
    48    18    46   1
    49    18    47   1
    50    19    48   1
    51    20    49   1
    52    20    50   1
    53    20    51   1
    54    21    52   1
    55    21    53   1
    56    23    54   1
    57    28    55   1
@<TRIPOS>SUBSTRUCTURE
     1  KR2      1

