@<TRIPOS>MOLECULE
2ole_ligand_065
    55    57
SMALL
GAST_HUCK
****
This file was generated by PARSER (from files_GN.cpp)

@<TRIPOS>ATOM
      1 CAY        -3.6808   -0.0371   -2.8929 C.ar        1 KR2      -0.0419
      2 CBC        -3.4426   -1.3956   -2.6104 C.ar        1 KR2      -0.0562
      3 CBB        -4.0282   -1.9911   -1.4788 C.ar        1 KR2      -0.0575
      4 CBA        -4.8522   -1.2312   -0.6317 C.ar        1 KR2      -0.0562
      5 CAZ        -5.0955    0.1272   -0.9146 C.ar        1 KR2      -0.0419
      6 CAX        -4.5049    0.7374   -2.0436 C.ar        1 KR2       0.0519
      7 CAW        -4.7364    2.0746   -2.3214 C.2         1 KR2       0.2286
      8 OAA        -5.5327    2.2753   -3.2344 O.2         1 KR2      -0.3825
      9 NAR        -4.0728    3.0990   -1.7500 N.am        1 KR2      -0.1656
     10 CAV        -3.1452    2.9026   -0.6469 C.3         1 KR2       0.0587
     11 CDD        -2.4779    4.1517   -0.0007 C.3         1 KR2      -0.0303
     12 CNN        -3.4856    5.1349    0.6504 C.3         1 KR2      -0.0492
     13 CAT        -4.2661    6.0160   -0.3570 C.3         1 KR2      -0.0302
     14 CAS        -5.1183    5.1971   -1.3634 C.3         1 KR2       0.0592
     15 NAQ        -4.2936    4.3413   -2.1993 N.am        1 KR2      -0.1666
     16 CAO        -3.6945    4.7369   -3.3424 C.2         1 KR2       0.2052
     17 OAP        -2.9416    3.9479   -3.9090 O.2         1 KR2      -0.3947
     18 CAN        -3.9179    6.0280   -4.0056 C.3         1 KR2       0.0838
     19 CAL        -3.0955    6.3048   -5.3045 C.3         1 KR2       0.0010
     20 NAM        -1.6623    6.3617   -4.9618 N.4         1 KR2       0.2238
     21 CAK        -3.5314    7.6138   -6.0318 C.3         1 KR2       0.0243
     22 CAG        -3.0822    7.6368   -7.4541 C.ar        1 KR2      -0.0094
     23 CAH        -1.7666    8.0536   -7.7709 C.ar        1 KR2      -0.0298
     24 CAC        -1.2929    8.0221   -9.0961 C.ar        1 KR2       0.1544
     25 FAB        -0.0682    8.3962   -9.3539 F           1 KR2      -0.1895
     26 CAD        -2.1384    7.5819  -10.1345 C.ar        1 KR2       0.1560
     27 FAI        -1.7102    7.5436  -11.3695 F           1 KR2      -0.1911
     28 CAE        -3.4497    7.1701   -9.8386 C.ar        1 KR2      -0.0030
     29 CAF        -3.9180    7.1889   -8.5087 C.ar        1 KR2       0.1274
     30 FAJ        -5.1293    6.7507   -8.2833 F           1 KR2      -0.1934
     31 H1         -3.2436    0.3830   -3.7179 H           1 KR2       0.0669
     32 H2         -2.8390   -1.9505   -3.2231 H           1 KR2       0.0629
     33 H3         -3.8545   -2.9790   -1.2727 H           1 KR2       0.0653
     34 H4         -5.2784   -1.6632    0.1922 H           1 KR2       0.0629
     35 H5         -5.7096    0.6613   -0.2957 H           1 KR2       0.0669
     36 H6         -2.3363    2.2612   -0.9979 H           1 KR2       0.0545
     37 H7         -3.6573    2.3634    0.1477 H           1 KR2       0.0545
     38 H8         -1.8696    4.6739   -0.7456 H           1 KR2       0.0285
     39 H9         -1.7948    3.7961    0.7785 H           1 KR2       0.0285
     40 H10        -2.9326    5.8012    1.3180 H           1 KR2       0.0267
     41 H11        -4.1948    4.5805    1.2721 H           1 KR2       0.0267
     42 H12        -3.5617    6.6526   -0.8964 H           1 KR2       0.0285
     43 H13        -4.9350    6.6759    0.2011 H           1 KR2       0.0285
     44 H14        -5.7187    5.8822   -1.9644 H           1 KR2       0.0546
     45 H15        -5.8370    4.5948   -0.7974 H           1 KR2       0.0546
     46 H16        -3.7083    6.8303   -3.2972 H           1 KR2       0.0561
     47 H17        -4.9806    6.0719   -4.2606 H           1 KR2       0.0561
     48 H18        -3.2498    5.4578   -5.9800 H           1 KR2       0.0898
     49 H19        -1.0878    6.4331   -5.8026 H           1 KR2       0.2000
     50 H20        -1.3880    5.5232   -4.4467 H           1 KR2       0.2000
     51 H21        -1.4896    7.1790   -4.3756 H           1 KR2       0.2000
     52 H22        -3.1399    8.4860   -5.4988 H           1 KR2       0.0467
     53 H23        -4.6195    7.7107   -5.9970 H           1 KR2       0.0467
     54 H24        -1.1389    8.3672   -7.0289 H           1 KR2       0.0522
     55 H25        -4.0632    6.8436  -10.5920 H           1 KR2       0.0562
@<TRIPOS>BOND
     1     1     2  ar
     2     1     6  ar
     3     2     3  ar
     4     3     4  ar
     5     4     5  ar
     6     5     6  ar
     7     6     7   1
     8     7     8   2
     9     7     9  am
    10     9    10   1
    11     9    15   1
    12    10    11   1
    13    11    12   1
    14    12    13   1
    15    13    14   1
    16    14    15   1
    17    15    16  am
    18    16    17   2
    19    16    18   1
    20    18    19   1
    21    19    20   1
    22    19    21   1
    23    21    22   1
    24    22    23  ar
    25    22    29  ar
    26    23    24  ar
    27    24    25   1
    28    24    26  ar
    29    26    27   1
    30    26    28  ar
    31    28    29  ar
    32    29    30   1
    33     1    31   1
    34     2    32   1
    35     3    33   1
    36     4    34   1
    37     5    35   1
    38    10    36   1
    39    10    37   1
    40    11    38   1
    41    11    39   1
    42    12    40   1
    43    12    41   1
    44    13    42   1
    45    13    43   1
    46    14    44   1
    47    14    45   1
    48    18    46   1
    49    18    47   1
    50    19    48   1
    51    20    49   1
    52    20    50   1
    53    20    51   1
    54    21    52   1
    55    21    53   1
    56    23    54   1
    57    28    55   1
@<TRIPOS>SUBSTRUCTURE
     1  KR2      1

