@<TRIPOS>MOLECULE
2ole_ligand_050
    55    57
SMALL
GAST_HUCK
****
This file was generated by PARSER (from files_GN.cpp)

@<TRIPOS>ATOM
      1 CAY        -1.9142    7.0895   -6.7413 C.ar        1 KR2      -0.0419
      2 CBC        -2.4577    8.3677   -6.9678 C.ar        1 KR2      -0.0562
      3 CBB        -3.1190    8.6522   -8.1770 C.ar        1 KR2      -0.0575
      4 CBA        -3.2410    7.6540   -9.1621 C.ar        1 KR2      -0.0562
      5 CAZ        -2.6975    6.3740   -8.9367 C.ar        1 KR2      -0.0419
      6 CAX        -2.0490    6.0710   -7.7155 C.ar        1 KR2       0.0519
      7 CAW        -1.5743    4.7825   -7.4878 C.2         1 KR2       0.2286
      8 OAA        -0.7051    4.3860   -8.2579 O.2         1 KR2      -0.3825
      9 NAR        -2.0755    3.9558   -6.5462 N.am        1 KR2      -0.1656
     10 CAV        -1.7087    2.5570   -6.4568 C.3         1 KR2       0.0587
     11 CDD        -2.5199    1.6977   -7.4617 C.3         1 KR2      -0.0303
     12 CNN        -4.0595    1.7601   -7.2545 C.3         1 KR2      -0.0492
     13 CAT        -4.6829    3.1811   -7.3235 C.3         1 KR2      -0.0302
     14 CAS        -4.4213    4.0516   -6.0614 C.3         1 KR2       0.0592
     15 NAQ        -3.0405    4.3549   -5.7128 N.am        1 KR2      -0.1666
     16 CAO        -2.6994    4.9631   -4.5589 C.2         1 KR2       0.2052
     17 OAP        -1.5083    5.0872   -4.2918 O.2         1 KR2      -0.3947
     18 CAN        -3.6249    5.6508   -3.6578 C.3         1 KR2       0.0838
     19 CAL        -3.1291    5.9720   -2.2177 C.3         1 KR2       0.0010
     20 NAM        -1.8896    6.7733   -2.2614 N.4         1 KR2       0.2238
     21 CAK        -2.8922    4.7567   -1.2602 C.3         1 KR2       0.0243
     22 CAG        -3.6120    3.4961   -1.6112 C.ar        1 KR2      -0.0094
     23 CAH        -3.1242    2.6786   -2.6695 C.ar        1 KR2      -0.0298
     24 CAC        -3.7340    1.4514   -2.9781 C.ar        1 KR2       0.1544
     25 FAB        -3.2585    0.7227   -3.9533 F           1 KR2      -0.1895
     26 CAD        -4.8551    1.0193   -2.2443 C.ar        1 KR2       0.1560
     27 FAI        -5.4332   -0.1242   -2.5179 F           1 KR2      -0.1911
     28 CAE        -5.3543    1.8195   -1.1970 C.ar        1 KR2      -0.0030
     29 CAF        -4.7600    3.0593   -0.8964 C.ar        1 KR2       0.1274
     30 FAJ        -5.3026    3.7925    0.0419 F           1 KR2      -0.1934
     31 H1         -1.4356    6.8993   -5.8594 H           1 KR2       0.0669
     32 H2         -2.3642    9.0973   -6.2635 H           1 KR2       0.0629
     33 H3         -3.5051    9.5900   -8.3375 H           1 KR2       0.0653
     34 H4         -3.7266    7.8563  -10.0414 H           1 KR2       0.0629
     35 H5         -2.8007    5.6576   -9.6694 H           1 KR2       0.0669
     36 H6         -1.8824    2.1701   -5.4414 H           1 KR2       0.0545
     37 H7         -0.6387    2.4284   -6.6439 H           1 KR2       0.0545
     38 H8         -2.1970    0.6554   -7.3630 H           1 KR2       0.0285
     39 H9         -2.2818    2.0213   -8.4783 H           1 KR2       0.0285
     40 H10        -4.3144    1.3065   -6.2906 H           1 KR2       0.0267
     41 H11        -4.5207    1.1581   -8.0313 H           1 KR2       0.0267
     42 H12        -5.7701    3.0798   -7.4333 H           1 KR2       0.0285
     43 H13        -4.3216    3.7068   -8.2147 H           1 KR2       0.0285
     44 H14        -4.8854    3.5254   -5.2239 H           1 KR2       0.0546
     45 H15        -4.9542    5.0057   -6.1950 H           1 KR2       0.0546
     46 H16        -4.5355    5.0727   -3.5506 H           1 KR2       0.0561
     47 H17        -3.9277    6.5944   -4.1252 H           1 KR2       0.0561
     48 H18        -3.8917    6.6091   -1.7519 H           1 KR2       0.0898
     49 H19        -1.6631    7.1299   -1.3324 H           1 KR2       0.2000
     50 H20        -1.9871    7.5657   -2.9035 H           1 KR2       0.2000
     51 H21        -1.1325    6.1738   -2.6101 H           1 KR2       0.2000
     52 H22        -3.2173    5.0718   -0.2520 H           1 KR2       0.0467
     53 H23        -1.8177    4.5376   -1.1608 H           1 KR2       0.0467
     54 H24        -2.3190    2.9873   -3.2148 H           1 KR2       0.0522
     55 H25        -6.1552    1.4969   -0.6496 H           1 KR2       0.0562
@<TRIPOS>BOND
     1     1     2  ar
     2     1     6  ar
     3     2     3  ar
     4     3     4  ar
     5     4     5  ar
     6     5     6  ar
     7     6     7   1
     8     7     8   2
     9     7     9  am
    10     9    10   1
    11     9    15   1
    12    10    11   1
    13    11    12   1
    14    12    13   1
    15    13    14   1
    16    14    15   1
    17    15    16  am
    18    16    17   2
    19    16    18   1
    20    18    19   1
    21    19    20   1
    22    19    21   1
    23    21    22   1
    24    22    23  ar
    25    22    29  ar
    26    23    24  ar
    27    24    25   1
    28    24    26  ar
    29    26    27   1
    30    26    28  ar
    31    28    29  ar
    32    29    30   1
    33     1    31   1
    34     2    32   1
    35     3    33   1
    36     4    34   1
    37     5    35   1
    38    10    36   1
    39    10    37   1
    40    11    38   1
    41    11    39   1
    42    12    40   1
    43    12    41   1
    44    13    42   1
    45    13    43   1
    46    14    44   1
    47    14    45   1
    48    18    46   1
    49    18    47   1
    50    19    48   1
    51    20    49   1
    52    20    50   1
    53    20    51   1
    54    21    52   1
    55    21    53   1
    56    23    54   1
    57    28    55   1
@<TRIPOS>SUBSTRUCTURE
     1  KR2      1

