@<TRIPOS>MOLECULE
2ole_ligand_039
    55    57
SMALL
GAST_HUCK
****
This file was generated by PARSER (from files_GN.cpp)

@<TRIPOS>ATOM
      1 CAY        -4.4521   -1.3927   -1.8306 C.ar        1 KR2      -0.0419
      2 CBC        -5.1599   -2.2930   -1.0053 C.ar        1 KR2      -0.0562
      3 CBB        -6.1708   -1.8129   -0.1529 C.ar        1 KR2      -0.0575
      4 CBA        -6.4695   -0.4391   -0.1202 C.ar        1 KR2      -0.0562
      5 CAZ        -5.7426    0.4613   -0.9241 C.ar        1 KR2      -0.0419
      6 CAX        -4.7398   -0.0060   -1.8065 C.ar        1 KR2       0.0519
      7 CAW        -4.0130    0.8741   -2.5950 C.2         1 KR2       0.2286
      8 OAA        -2.8239    0.9489   -2.2999 O.2         1 KR2      -0.3825
      9 NAR        -4.4926    1.5819   -3.6430 N.am        1 KR2      -0.1656
     10 CAV        -5.8390    1.4594   -4.1629 C.3         1 KR2       0.0587
     11 CDD        -5.9986    0.1772   -5.0236 C.3         1 KR2      -0.0303
     12 CNN        -5.0694    0.1380   -6.2696 C.3         1 KR2      -0.0492
     13 CAT        -3.5507    0.2695   -5.9616 C.3         1 KR2      -0.0302
     14 CAS        -3.1068    1.7134   -5.5791 C.3         1 KR2       0.0592
     15 NAQ        -3.6519    2.3147   -4.3723 N.am        1 KR2      -0.1666
     16 CAO        -3.3674    3.5798   -3.9906 C.2         1 KR2       0.2052
     17 OAP        -3.9001    4.0127   -2.9789 O.2         1 KR2      -0.3947
     18 CAN        -2.4254    4.4724   -4.6897 C.3         1 KR2       0.0838
     19 CAL        -2.5041    6.0166   -4.4360 C.3         1 KR2       0.0010
     20 NAM        -2.1544    6.3813   -3.0484 N.4         1 KR2       0.2238
     21 CAK        -3.8812    6.6527   -4.8059 C.3         1 KR2       0.0243
     22 CAG        -4.0645    6.8510   -6.2758 C.ar        1 KR2      -0.0094
     23 CAH        -4.9468    6.0149   -7.0065 C.ar        1 KR2      -0.0298
     24 CAC        -5.1341    6.2005   -8.3912 C.ar        1 KR2       0.1544
     25 FAB        -5.9531    5.4229   -9.0436 F           1 KR2      -0.1895
     26 CAD        -4.4484    7.2304   -9.0625 C.ar        1 KR2       0.1560
     27 FAI        -4.6230    7.4302  -10.3402 F           1 KR2      -0.1911
     28 CAE        -3.5768    8.0719   -8.3482 C.ar        1 KR2      -0.0030
     29 CAF        -3.3755    7.8785   -6.9686 C.ar        1 KR2       0.1274
     30 FAJ        -2.5373    8.6729   -6.3516 F           1 KR2      -0.1934
     31 H1         -3.7329   -1.7667   -2.4597 H           1 KR2       0.0669
     32 H2         -4.9461   -3.2949   -1.0331 H           1 KR2       0.0629
     33 H3         -6.6821   -2.4623    0.4526 H           1 KR2       0.0653
     34 H4         -7.2225   -0.0944    0.4825 H           1 KR2       0.0629
     35 H5         -5.9398    1.4654   -0.8457 H           1 KR2       0.0669
     36 H6         -6.0803    2.3239   -4.7961 H           1 KR2       0.0545
     37 H7         -6.5649    1.4749   -3.3483 H           1 KR2       0.0545
     38 H8         -7.0375    0.1215   -5.3593 H           1 KR2       0.0285
     39 H9         -5.8093   -0.7033   -4.4091 H           1 KR2       0.0285
     40 H10        -5.3646    0.9286   -6.9674 H           1 KR2       0.0267
     41 H11        -5.2362   -0.8147   -6.7831 H           1 KR2       0.0267
     42 H12        -2.9987   -0.0226   -6.8593 H           1 KR2       0.0285
     43 H13        -3.2712   -0.4354   -5.1742 H           1 KR2       0.0285
     44 H14        -3.3605    2.3423   -6.4339 H           1 KR2       0.0546
     45 H15        -2.0192    1.6969   -5.4853 H           1 KR2       0.0546
     46 H16        -2.5387    4.3335   -5.7661 H           1 KR2       0.0561
     47 H17        -1.4130    4.1387   -4.4279 H           1 KR2       0.0561
     48 H18        -1.7326    6.4789   -5.0590 H           1 KR2       0.0898
     49 H19        -1.8834    7.3693   -3.0256 H           1 KR2       0.2000
     50 H20        -1.3680    5.8130   -2.7227 H           1 KR2       0.2000
     51 H21        -2.9623    6.2282   -2.4327 H           1 KR2       0.2000
     52 H22        -3.9723    7.6275   -4.3123 H           1 KR2       0.0467
     53 H23        -4.6816    6.0325   -4.3907 H           1 KR2       0.0467
     54 H24        -5.4455    5.2568   -6.5366 H           1 KR2       0.0522
     55 H25        -3.0904    8.8300   -8.8307 H           1 KR2       0.0562
@<TRIPOS>BOND
     1     1     2  ar
     2     1     6  ar
     3     2     3  ar
     4     3     4  ar
     5     4     5  ar
     6     5     6  ar
     7     6     7   1
     8     7     8   2
     9     7     9  am
    10     9    10   1
    11     9    15   1
    12    10    11   1
    13    11    12   1
    14    12    13   1
    15    13    14   1
    16    14    15   1
    17    15    16  am
    18    16    17   2
    19    16    18   1
    20    18    19   1
    21    19    20   1
    22    19    21   1
    23    21    22   1
    24    22    23  ar
    25    22    29  ar
    26    23    24  ar
    27    24    25   1
    28    24    26  ar
    29    26    27   1
    30    26    28  ar
    31    28    29  ar
    32    29    30   1
    33     1    31   1
    34     2    32   1
    35     3    33   1
    36     4    34   1
    37     5    35   1
    38    10    36   1
    39    10    37   1
    40    11    38   1
    41    11    39   1
    42    12    40   1
    43    12    41   1
    44    13    42   1
    45    13    43   1
    46    14    44   1
    47    14    45   1
    48    18    46   1
    49    18    47   1
    50    19    48   1
    51    20    49   1
    52    20    50   1
    53    20    51   1
    54    21    52   1
    55    21    53   1
    56    23    54   1
    57    28    55   1
@<TRIPOS>SUBSTRUCTURE
     1  KR2      1

