@<TRIPOS>MOLECULE
2ole_ligand_064
    55    57
SMALL
GAST_HUCK
****
This file was generated by PARSER (from files_GN.cpp)

@<TRIPOS>ATOM
      1 CAY        -7.3184    3.4850   -8.8736 C.ar        1 KR2      -0.0419
      2 CBC        -8.6286    3.4920   -9.3876 C.ar        1 KR2      -0.0562
      3 CBB        -9.7090    3.8555   -8.5625 C.ar        1 KR2      -0.0575
      4 CBA        -9.4771    4.2176   -7.2221 C.ar        1 KR2      -0.0562
      5 CAZ        -8.1686    4.2130   -6.7070 C.ar        1 KR2      -0.0419
      6 CAX        -7.0739    3.8522   -7.5301 C.ar        1 KR2       0.0519
      7 CAW        -5.7885    3.8501   -7.0051 C.2         1 KR2       0.2286
      8 OAA        -5.5797    2.9720   -6.1767 O.2         1 KR2      -0.3825
      9 NAR        -4.8438    4.7787   -7.2635 N.am        1 KR2      -0.1656
     10 CAV        -5.0548    5.8309   -8.2529 C.3         1 KR2       0.0587
     11 CDD        -3.8060    6.6350   -8.7005 C.3         1 KR2      -0.0303
     12 CNN        -2.7221    5.7536   -9.3858 C.3         1 KR2      -0.0492
     13 CAT        -2.4516    4.3818   -8.7049 C.3         1 KR2      -0.0302
     14 CAS        -2.4565    4.4650   -7.1526 C.3         1 KR2       0.0592
     15 NAQ        -3.7216    4.8190   -6.5153 N.am        1 KR2      -0.1666
     16 CAO        -3.7964    5.2174   -5.2216 C.2         1 KR2       0.2052
     17 OAP        -4.8958    5.5337   -4.7770 O.2         1 KR2      -0.3947
     18 CAN        -2.6474    5.5590   -4.3780 C.3         1 KR2       0.0838
     19 CAL        -2.8690    5.6843   -2.8289 C.3         1 KR2       0.0010
     20 NAM        -1.8839    6.6538   -2.3069 N.4         1 KR2       0.2238
     21 CAK        -2.6757    4.3698   -2.0068 C.3         1 KR2       0.0243
     22 CAG        -3.5567    3.2076   -2.3204 C.ar        1 KR2      -0.0094
     23 CAH        -4.5373    2.7940   -1.3831 C.ar        1 KR2      -0.0298
     24 CAC        -5.2787    1.6139   -1.5820 C.ar        1 KR2       0.1544
     25 FAB        -6.1350    1.2306   -0.6764 F           1 KR2      -0.1895
     26 CAD        -5.0675    0.8335   -2.7362 C.ar        1 KR2       0.1560
     27 FAI        -5.7423   -0.2679   -2.9391 F           1 KR2      -0.1911
     28 CAE        -4.0926    1.2250   -3.6712 C.ar        1 KR2      -0.0030
     29 CAF        -3.3362    2.3963   -3.4628 C.ar        1 KR2       0.1274
     30 FAJ        -2.3961    2.6799   -4.3231 F           1 KR2      -0.1934
     31 H1         -6.5462    3.2092   -9.4861 H           1 KR2       0.0669
     32 H2         -8.7990    3.2288  -10.3605 H           1 KR2       0.0629
     33 H3        -10.6606    3.8509   -8.9343 H           1 KR2       0.0653
     34 H4        -10.2631    4.4830   -6.6236 H           1 KR2       0.0629
     35 H5         -8.0188    4.4848   -5.7305 H           1 KR2       0.0669
     36 H6         -5.7833    6.5319   -7.8493 H           1 KR2       0.0545
     37 H7         -5.4758    5.4080   -9.1669 H           1 KR2       0.0545
     38 H8         -3.3719    7.1369   -7.8315 H           1 KR2       0.0285
     39 H9         -4.1124    7.4175   -9.4003 H           1 KR2       0.0285
     40 H10        -1.7873    6.3219   -9.4107 H           1 KR2       0.0267
     41 H11        -3.0147    5.5681  -10.4219 H           1 KR2       0.0267
     42 H12        -1.4806    4.0074   -9.0399 H           1 KR2       0.0285
     43 H13        -3.2017    3.6566   -9.0294 H           1 KR2       0.0285
     44 H14        -1.6858    5.1947   -6.8921 H           1 KR2       0.0546
     45 H15        -2.1407    3.4941   -6.7665 H           1 KR2       0.0546
     46 H16        -2.2925    6.5244   -4.7557 H           1 KR2       0.0561
     47 H17        -1.8335    4.8404   -4.5238 H           1 KR2       0.0561
     48 H18        -3.8560    6.1035   -2.6102 H           1 KR2       0.0898
     49 H19        -2.0477    6.8347   -1.3141 H           1 KR2       0.2000
     50 H20        -1.9260    7.5352   -2.8283 H           1 KR2       0.2000
     51 H21        -0.9527    6.2568   -2.4201 H           1 KR2       0.2000
     52 H22        -2.8002    4.6356   -0.9497 H           1 KR2       0.0467
     53 H23        -1.6381    4.0434   -2.0969 H           1 KR2       0.0467
     54 H24        -4.6920    3.3387   -0.5291 H           1 KR2       0.0522
     55 H25        -3.9123    0.6384   -4.4889 H           1 KR2       0.0562
@<TRIPOS>BOND
     1     1     2  ar
     2     1     6  ar
     3     2     3  ar
     4     3     4  ar
     5     4     5  ar
     6     5     6  ar
     7     6     7   1
     8     7     8   2
     9     7     9  am
    10     9    10   1
    11     9    15   1
    12    10    11   1
    13    11    12   1
    14    12    13   1
    15    13    14   1
    16    14    15   1
    17    15    16  am
    18    16    17   2
    19    16    18   1
    20    18    19   1
    21    19    20   1
    22    19    21   1
    23    21    22   1
    24    22    23  ar
    25    22    29  ar
    26    23    24  ar
    27    24    25   1
    28    24    26  ar
    29    26    27   1
    30    26    28  ar
    31    28    29  ar
    32    29    30   1
    33     1    31   1
    34     2    32   1
    35     3    33   1
    36     4    34   1
    37     5    35   1
    38    10    36   1
    39    10    37   1
    40    11    38   1
    41    11    39   1
    42    12    40   1
    43    12    41   1
    44    13    42   1
    45    13    43   1
    46    14    44   1
    47    14    45   1
    48    18    46   1
    49    18    47   1
    50    19    48   1
    51    20    49   1
    52    20    50   1
    53    20    51   1
    54    21    52   1
    55    21    53   1
    56    23    54   1
    57    28    55   1
@<TRIPOS>SUBSTRUCTURE
     1  KR2      1

