@<TRIPOS>MOLECULE
2ole_ligand_005
    55    57
SMALL
GAST_HUCK
****
This file was generated by PARSER (from files_GN.cpp)

@<TRIPOS>ATOM
      1 CAY        -3.1271    9.3548   -8.5745 C.ar        1 KR2      -0.0419
      2 CBC        -2.6901   10.0576   -9.7110 C.ar        1 KR2      -0.0562
      3 CBB        -1.5366    9.6324  -10.3898 C.ar        1 KR2      -0.0575
      4 CBA        -0.7832    8.5572   -9.8892 C.ar        1 KR2      -0.0562
      5 CAZ        -1.1948    7.8975   -8.7195 C.ar        1 KR2      -0.0419
      6 CAX        -2.4200    8.2294   -8.0896 C.ar        1 KR2       0.0519
      7 CAW        -2.9060    7.4995   -7.0035 C.2         1 KR2       0.2286
      8 OAA        -3.3594    8.1822   -6.0871 O.2         1 KR2      -0.3825
      9 NAR        -2.9817    6.1540   -6.8965 N.am        1 KR2      -0.1656
     10 CAV        -2.7133    5.1913   -7.9562 C.3         1 KR2       0.0587
     11 CDD        -3.8756    5.1342   -8.9725 C.3         1 KR2      -0.0303
     12 CNN        -5.1805    4.5650   -8.3521 C.3         1 KR2      -0.0492
     13 CAT        -5.7033    5.3582   -7.1233 C.3         1 KR2      -0.0302
     14 CAS        -4.8770    5.1640   -5.8170 C.3         1 KR2       0.0592
     15 NAQ        -3.4927    5.6189   -5.7819 N.am        1 KR2      -0.1666
     16 CAO        -2.6925    5.5183   -4.7013 C.2         1 KR2       0.2052
     17 OAP        -1.5334    5.9119   -4.7755 O.2         1 KR2      -0.3947
     18 CAN        -3.0212    4.9023   -3.4214 C.3         1 KR2       0.0838
     19 CAL        -2.9497    5.8372   -2.1747 C.3         1 KR2       0.0010
     20 NAM        -1.7592    6.7109   -2.1404 N.4         1 KR2       0.2238
     21 CAK        -3.0737    4.9809   -0.8571 C.3         1 KR2       0.0243
     22 CAG        -4.0813    5.3809    0.1772 C.ar        1 KR2      -0.0094
     23 CAH        -3.7727    5.1656    1.5449 C.ar        1 KR2      -0.0298
     24 CAC        -4.7354    5.3681    2.5534 C.ar        1 KR2       0.1544
     25 FAB        -4.4392    5.0807    3.7909 F           1 KR2      -0.1895
     26 CAD        -6.0178    5.8359    2.2158 C.ar        1 KR2       0.1560
     27 FAI        -6.9193    6.0279    3.1387 F           1 KR2      -0.1911
     28 CAE        -6.3443    6.0548    0.8663 C.ar        1 KR2      -0.0030
     29 CAF        -5.4087    5.7757   -0.1461 C.ar        1 KR2       0.1274
     30 FAJ        -5.8442    5.8276   -1.3760 F           1 KR2      -0.1934
     31 H1         -3.9855    9.6693   -8.1085 H           1 KR2       0.0669
     32 H2         -3.2183   10.8616  -10.0558 H           1 KR2       0.0629
     33 H3         -1.2377   10.1199  -11.2364 H           1 KR2       0.0653
     34 H4          0.0656    8.2552  -10.3710 H           1 KR2       0.0629
     35 H5         -0.5860    7.1736   -8.3290 H           1 KR2       0.0669
     36 H6         -2.5897    4.1889   -7.5403 H           1 KR2       0.0545
     37 H7         -1.7815    5.3850   -8.4636 H           1 KR2       0.0545
     38 H8         -3.5764    4.4950   -9.8104 H           1 KR2       0.0285
     39 H9         -4.0624    6.1322   -9.3741 H           1 KR2       0.0285
     40 H10        -5.0193    3.5215   -8.0718 H           1 KR2       0.0267
     41 H11        -5.9474    4.5742   -9.1296 H           1 KR2       0.0267
     42 H12        -6.7242    5.0265   -6.9296 H           1 KR2       0.0285
     43 H13        -5.7509    6.4188   -7.3757 H           1 KR2       0.0285
     44 H14        -4.8998    4.0941   -5.5840 H           1 KR2       0.0546
     45 H15        -5.4178    5.6890   -5.0234 H           1 KR2       0.0546
     46 H16        -2.3428    4.0535   -3.2788 H           1 KR2       0.0561
     47 H17        -4.0234    4.4747   -3.4416 H           1 KR2       0.0561
     48 H18        -3.7678    6.5368   -2.2561 H           1 KR2       0.0898
     49 H19        -1.6524    7.1182   -1.2128 H           1 KR2       0.2000
     50 H20        -1.8472    7.4601   -2.8321 H           1 KR2       0.2000
     51 H21        -0.9235    6.1687   -2.3594 H           1 KR2       0.2000
     52 H22        -2.0740    4.9274   -0.4147 H           1 KR2       0.0467
     53 H23        -3.3413    3.9483   -1.1016 H           1 KR2       0.0467
     54 H24        -2.8574    4.8015    1.8149 H           1 KR2       0.0522
     55 H25        -7.2803    6.3799    0.6145 H           1 KR2       0.0562
@<TRIPOS>BOND
     1     1     2  ar
     2     1     6  ar
     3     2     3  ar
     4     3     4  ar
     5     4     5  ar
     6     5     6  ar
     7     6     7   1
     8     7     8   2
     9     7     9  am
    10     9    10   1
    11     9    15   1
    12    10    11   1
    13    11    12   1
    14    12    13   1
    15    13    14   1
    16    14    15   1
    17    15    16  am
    18    16    17   2
    19    16    18   1
    20    18    19   1
    21    19    20   1
    22    19    21   1
    23    21    22   1
    24    22    23  ar
    25    22    29  ar
    26    23    24  ar
    27    24    25   1
    28    24    26  ar
    29    26    27   1
    30    26    28  ar
    31    28    29  ar
    32    29    30   1
    33     1    31   1
    34     2    32   1
    35     3    33   1
    36     4    34   1
    37     5    35   1
    38    10    36   1
    39    10    37   1
    40    11    38   1
    41    11    39   1
    42    12    40   1
    43    12    41   1
    44    13    42   1
    45    13    43   1
    46    14    44   1
    47    14    45   1
    48    18    46   1
    49    18    47   1
    50    19    48   1
    51    20    49   1
    52    20    50   1
    53    20    51   1
    54    21    52   1
    55    21    53   1
    56    23    54   1
    57    28    55   1
@<TRIPOS>SUBSTRUCTURE
     1  KR2      1

