@<TRIPOS>MOLECULE
2ole_ligand_051
    55    57
SMALL
GAST_HUCK
****
This file was generated by PARSER (from files_GN.cpp)

@<TRIPOS>ATOM
      1 CAY        -1.5234    0.9219   -6.9748 C.ar        1 KR2      -0.0419
      2 CBC        -1.3754   -0.3789   -7.4891 C.ar        1 KR2      -0.0562
      3 CBB        -0.6037   -0.5962   -8.6436 C.ar        1 KR2      -0.0575
      4 CBA         0.0287    0.4862   -9.2784 C.ar        1 KR2      -0.0562
      5 CAZ        -0.1226    1.7902   -8.7692 C.ar        1 KR2      -0.0419
      6 CAX        -0.9141    2.0270   -7.6187 C.ar        1 KR2       0.0519
      7 CAW        -1.0829    3.3165   -7.1256 C.2         1 KR2       0.2286
      8 OAA        -0.0557    3.8485   -6.7167 O.2         1 KR2      -0.3825
      9 NAR        -2.2534    3.9869   -7.0877 N.am        1 KR2      -0.1656
     10 CAV        -3.4560    3.4778   -7.7337 C.3         1 KR2       0.0587
     11 CDD        -4.6835    4.4209   -7.8798 C.3         1 KR2      -0.0303
     12 CNN        -4.4009    5.6992   -8.7128 C.3         1 KR2      -0.0492
     13 CAT        -3.6257    6.7946   -7.9392 C.3         1 KR2      -0.0302
     14 CAS        -2.2558    6.3359   -7.3759 C.3         1 KR2       0.0592
     15 NAQ        -2.3187    5.1836   -6.4945 N.am        1 KR2      -0.1666
     16 CAO        -2.5113    5.2459   -5.1603 C.2         1 KR2       0.2052
     17 OAP        -2.3222    4.2376   -4.4873 O.2         1 KR2      -0.3947
     18 CAN        -3.0148    6.4322   -4.4645 C.3         1 KR2       0.0838
     19 CAL        -3.2438    6.4083   -2.9183 C.3         1 KR2       0.0010
     20 NAM        -1.9607    6.6234   -2.2277 N.4         1 KR2       0.2238
     21 CAK        -3.9923    5.1787   -2.3065 C.3         1 KR2       0.0243
     22 CAG        -4.9386    4.4579   -3.2092 C.ar        1 KR2      -0.0094
     23 CAH        -5.8823    5.1918   -3.9709 C.ar        1 KR2      -0.0298
     24 CAC        -6.7846    4.5401   -4.8361 C.ar        1 KR2       0.1544
     25 FAB        -7.6471    5.2407   -5.5261 F           1 KR2      -0.1895
     26 CAD        -6.7733    3.1362   -4.9357 C.ar        1 KR2       0.1560
     27 FAI        -7.6142    2.5082   -5.7138 F           1 KR2      -0.1911
     28 CAE        -5.8536    2.3894   -4.1719 C.ar        1 KR2      -0.0030
     29 CAF        -4.9437    3.0407   -3.3214 C.ar        1 KR2       0.1274
     30 FAJ        -4.1125    2.2911   -2.6469 F           1 KR2      -0.1934
     31 H1         -2.0727    1.0553   -6.1221 H           1 KR2       0.0669
     32 H2         -1.8266   -1.1675   -7.0191 H           1 KR2       0.0629
     33 H3         -0.4990   -1.5427   -9.0173 H           1 KR2       0.0653
     34 H4          0.5960    0.3262  -10.1150 H           1 KR2       0.0629
     35 H5          0.3349    2.5675   -9.2541 H           1 KR2       0.0669
     36 H6         -3.7983    2.6035   -7.1763 H           1 KR2       0.0545
     37 H7         -3.1962    3.1443   -8.7440 H           1 KR2       0.0545
     38 H8         -5.0524    4.6975   -6.8914 H           1 KR2       0.0285
     39 H9         -5.4794    3.8590   -8.3756 H           1 KR2       0.0285
     40 H10        -5.3592    6.1269   -9.0234 H           1 KR2       0.0267
     41 H11        -3.8553    5.4358   -9.6232 H           1 KR2       0.0267
     42 H12        -4.2576    7.1683   -7.1342 H           1 KR2       0.0285
     43 H13        -3.4515    7.6340   -8.6185 H           1 KR2       0.0285
     44 H14        -1.7754    7.1773   -6.8739 H           1 KR2       0.0546
     45 H15        -1.6053    6.1049   -8.2235 H           1 KR2       0.0546
     46 H16        -3.9888    6.6591   -4.8968 H           1 KR2       0.0561
     47 H17        -2.3511    7.2720   -4.6885 H           1 KR2       0.0561
     48 H18        -3.8433    7.2943   -2.6904 H           1 KR2       0.0898
     49 H19        -2.0928    6.6474   -1.2142 H           1 KR2       0.2000
     50 H20        -1.5633    7.5157   -2.5246 H           1 KR2       0.2000
     51 H21        -1.3190    5.8698   -2.4658 H           1 KR2       0.2000
     52 H22        -4.5665    5.5256   -1.4387 H           1 KR2       0.0467
     53 H23        -3.2465    4.4843   -1.9132 H           1 KR2       0.0467
     54 H24        -5.9241    6.2094   -3.8904 H           1 KR2       0.0522
     55 H25        -5.8501    1.3665   -4.2384 H           1 KR2       0.0562
@<TRIPOS>BOND
     1     1     2  ar
     2     1     6  ar
     3     2     3  ar
     4     3     4  ar
     5     4     5  ar
     6     5     6  ar
     7     6     7   1
     8     7     8   2
     9     7     9  am
    10     9    10   1
    11     9    15   1
    12    10    11   1
    13    11    12   1
    14    12    13   1
    15    13    14   1
    16    14    15   1
    17    15    16  am
    18    16    17   2
    19    16    18   1
    20    18    19   1
    21    19    20   1
    22    19    21   1
    23    21    22   1
    24    22    23  ar
    25    22    29  ar
    26    23    24  ar
    27    24    25   1
    28    24    26  ar
    29    26    27   1
    30    26    28  ar
    31    28    29  ar
    32    29    30   1
    33     1    31   1
    34     2    32   1
    35     3    33   1
    36     4    34   1
    37     5    35   1
    38    10    36   1
    39    10    37   1
    40    11    38   1
    41    11    39   1
    42    12    40   1
    43    12    41   1
    44    13    42   1
    45    13    43   1
    46    14    44   1
    47    14    45   1
    48    18    46   1
    49    18    47   1
    50    19    48   1
    51    20    49   1
    52    20    50   1
    53    20    51   1
    54    21    52   1
    55    21    53   1
    56    23    54   1
    57    28    55   1
@<TRIPOS>SUBSTRUCTURE
     1  KR2      1

