@<TRIPOS>MOLECULE
2ole_ligand_008
    55    57
SMALL
GAST_HUCK
****
This file was generated by PARSER (from files_GN.cpp)

@<TRIPOS>ATOM
      1 CAY        -8.7739    3.9697   -6.5761 C.ar        1 KR2      -0.0419
      2 CBC        -9.9133    3.1868   -6.8514 C.ar        1 KR2      -0.0562
      3 CBB       -10.1108    1.9718   -6.1734 C.ar        1 KR2      -0.0575
      4 CBA        -9.1657    1.5244   -5.2328 C.ar        1 KR2      -0.0562
      5 CAZ        -8.0309    2.3096   -4.9499 C.ar        1 KR2      -0.0419
      6 CAX        -7.8191    3.5391   -5.6237 C.ar        1 KR2       0.0519
      7 CAW        -6.7561    4.3517   -5.2522 C.2         1 KR2       0.2286
      8 OAA        -6.8029    4.7446   -4.0925 O.2         1 KR2      -0.3825
      9 NAR        -5.7136    4.7067   -6.0374 N.am        1 KR2      -0.1656
     10 CAV        -5.6040    4.3010   -7.4282 C.3         1 KR2       0.0587
     11 CDD        -4.4057    4.8628   -8.2498 C.3         1 KR2      -0.0303
     12 CNN        -4.3826    6.4142   -8.3291 C.3         1 KR2      -0.0492
     13 CAT        -3.8425    7.1083   -7.0502 C.3         1 KR2      -0.0302
     14 CAS        -4.6484    6.7970   -5.7630 C.3         1 KR2       0.0592
     15 NAQ        -4.6933    5.3751   -5.4819 N.am        1 KR2      -0.1666
     16 CAO        -3.7490    4.6954   -4.7982 C.2         1 KR2       0.2052
     17 OAP        -3.8299    3.4718   -4.7444 O.2         1 KR2      -0.3947
     18 CAN        -2.5976    5.2748   -4.1029 C.3         1 KR2       0.0838
     19 CAL        -2.9314    5.8680   -2.6982 C.3         1 KR2       0.0010
     20 NAM        -1.8127    6.7368   -2.2899 N.4         1 KR2       0.2238
     21 CAK        -3.1725    4.7752   -1.6074 C.3         1 KR2       0.0243
     22 CAG        -4.0863    5.1720   -0.4918 C.ar        1 KR2      -0.0094
     23 CAH        -3.6839    5.0528    0.8635 C.ar        1 KR2      -0.0298
     24 CAC        -4.5957    5.2792    1.9120 C.ar        1 KR2       0.1544
     25 FAB        -4.2061    5.1327    3.1497 F           1 KR2      -0.1895
     26 CAD        -5.9299    5.6411    1.6255 C.ar        1 KR2       0.1560
     27 FAI        -6.7977    5.8101    2.5862 F           1 KR2      -0.1911
     28 CAE        -6.3306    5.8117    0.2931 C.ar        1 KR2      -0.0030
     29 CAF        -5.4210    5.5783   -0.7585 C.ar        1 KR2       0.1274
     30 FAJ        -5.8690    5.6978   -1.9803 F           1 KR2      -0.1934
     31 H1         -8.6676    4.8647   -7.0569 H           1 KR2       0.0669
     32 H2        -10.6045    3.5118   -7.5350 H           1 KR2       0.0629
     33 H3        -10.9478    1.4119   -6.3618 H           1 KR2       0.0653
     34 H4         -9.3063    0.6359   -4.7431 H           1 KR2       0.0629
     35 H5         -7.3626    1.9789   -4.2473 H           1 KR2       0.0669
     36 H6         -6.5076    4.6093   -7.9614 H           1 KR2       0.0545
     37 H7         -5.5457    3.2073   -7.4582 H           1 KR2       0.0545
     38 H8         -4.4872    4.4686   -9.2665 H           1 KR2       0.0285
     39 H9         -3.4636    4.4958   -7.8323 H           1 KR2       0.0285
     40 H10        -5.3861    6.7897   -8.5542 H           1 KR2       0.0267
     41 H11        -3.7348    6.7034   -9.1625 H           1 KR2       0.0267
     42 H12        -3.8606    8.1906   -7.2145 H           1 KR2       0.0285
     43 H13        -2.7991    6.8164   -6.9070 H           1 KR2       0.0285
     44 H14        -5.6622    7.1845   -5.8845 H           1 KR2       0.0546
     45 H15        -4.2230    7.3578   -4.9288 H           1 KR2       0.0546
     46 H16        -2.1557    6.0494   -4.7319 H           1 KR2       0.0561
     47 H17        -1.8150    4.5211   -3.9818 H           1 KR2       0.0561
     48 H18        -3.8127    6.5056   -2.7862 H           1 KR2       0.0898
     49 H19        -1.9155    7.0311   -1.3168 H           1 KR2       0.2000
     50 H20        -1.7767    7.5673   -2.8878 H           1 KR2       0.2000
     51 H21        -0.9336    6.2277   -2.3872 H           1 KR2       0.2000
     52 H22        -2.1974    4.4618   -1.2156 H           1 KR2       0.0467
     53 H23        -3.6102    3.8873   -2.0635 H           1 KR2       0.0467
     54 H24        -2.7250    4.7702    1.0892 H           1 KR2       0.0522
     55 H25        -7.2894    6.0940    0.0790 H           1 KR2       0.0562
@<TRIPOS>BOND
     1     1     2  ar
     2     1     6  ar
     3     2     3  ar
     4     3     4  ar
     5     4     5  ar
     6     5     6  ar
     7     6     7   1
     8     7     8   2
     9     7     9  am
    10     9    10   1
    11     9    15   1
    12    10    11   1
    13    11    12   1
    14    12    13   1
    15    13    14   1
    16    14    15   1
    17    15    16  am
    18    16    17   2
    19    16    18   1
    20    18    19   1
    21    19    20   1
    22    19    21   1
    23    21    22   1
    24    22    23  ar
    25    22    29  ar
    26    23    24  ar
    27    24    25   1
    28    24    26  ar
    29    26    27   1
    30    26    28  ar
    31    28    29  ar
    32    29    30   1
    33     1    31   1
    34     2    32   1
    35     3    33   1
    36     4    34   1
    37     5    35   1
    38    10    36   1
    39    10    37   1
    40    11    38   1
    41    11    39   1
    42    12    40   1
    43    12    41   1
    44    13    42   1
    45    13    43   1
    46    14    44   1
    47    14    45   1
    48    18    46   1
    49    18    47   1
    50    19    48   1
    51    20    49   1
    52    20    50   1
    53    20    51   1
    54    21    52   1
    55    21    53   1
    56    23    54   1
    57    28    55   1
@<TRIPOS>SUBSTRUCTURE
     1  KR2      1

