@<TRIPOS>MOLECULE
2ole_ligand_037
    55    57
SMALL
GAST_HUCK
****
This file was generated by PARSER (from files_GN.cpp)

@<TRIPOS>ATOM
      1 CAY        -3.6157    1.3148   -4.6257 C.ar        1 KR2      -0.0419
      2 CBC        -4.1025    1.2117   -3.3178 C.ar        1 KR2      -0.0562
      3 CBB        -5.4650    1.4505   -3.0475 C.ar        1 KR2      -0.0575
      4 CBA        -6.3365    1.7790   -4.1025 C.ar        1 KR2      -0.0562
      5 CAZ        -5.8489    1.8777   -5.4141 C.ar        1 KR2      -0.0419
      6 CAX        -4.4760    1.6634   -5.7013 C.ar        1 KR2       0.0519
      7 CAW        -4.0232    1.7220   -7.0116 C.2         1 KR2       0.2286
      8 OAA        -4.6269    0.9978   -7.7911 O.2         1 KR2      -0.3825
      9 NAR        -3.0135    2.5017   -7.4585 N.am        1 KR2      -0.1656
     10 CAV        -2.5905    2.4200   -8.8492 C.3         1 KR2       0.0587
     11 CDD        -1.4086    3.3094   -9.3300 C.3         1 KR2      -0.0303
     12 CNN        -0.0659    3.0288   -8.6068 C.3         1 KR2      -0.0492
     13 CAT         0.0045    3.6109   -7.1750 C.3         1 KR2      -0.0302
     14 CAS        -1.0604    3.0007   -6.2388 C.3         1 KR2       0.0592
     15 NAQ        -2.4018    3.3689   -6.6478 N.am        1 KR2      -0.1666
     16 CAO        -2.9823    4.5491   -6.3422 C.2         1 KR2       0.2052
     17 OAP        -4.0966    4.7970   -6.7978 O.2         1 KR2      -0.3947
     18 CAN        -2.4334    5.6161   -5.4973 C.3         1 KR2       0.0838
     19 CAL        -3.1274    5.8226   -4.1110 C.3         1 KR2       0.0010
     20 NAM        -2.2080    6.5501   -3.2161 N.4         1 KR2       0.2238
     21 CAK        -3.5868    4.5170   -3.4158 C.3         1 KR2       0.0243
     22 CAG        -3.9612    4.6630   -1.9789 C.ar        1 KR2      -0.0094
     23 CAH        -3.0641    4.2457   -0.9769 C.ar        1 KR2      -0.0298
     24 CAC        -3.3777    4.4053    0.3871 C.ar        1 KR2       0.1544
     25 FAB        -2.5134    4.0462    1.2899 F           1 KR2      -0.1895
     26 CAD        -4.6185    4.9625    0.7538 C.ar        1 KR2       0.1560
     27 FAI        -4.9356    5.0898    2.0144 F           1 KR2      -0.1911
     28 CAE        -5.5205    5.3903   -0.2357 C.ar        1 KR2      -0.0030
     29 CAF        -5.1959    5.2573   -1.5941 C.ar        1 KR2       0.1274
     30 FAJ        -6.0414    5.7047   -2.4830 F           1 KR2      -0.1934
     31 H1         -2.6245    1.1283   -4.7931 H           1 KR2       0.0669
     32 H2         -3.4644    0.9950   -2.5467 H           1 KR2       0.0629
     33 H3         -5.8165    1.3916   -2.0922 H           1 KR2       0.0653
     34 H4         -7.3239    1.9597   -3.9098 H           1 KR2       0.0629
     35 H5         -6.5020    2.1246   -6.1670 H           1 KR2       0.0669
     36 H6         -3.4495    2.6699   -9.4772 H           1 KR2       0.0545
     37 H7         -2.3189    1.3827   -9.0792 H           1 KR2       0.0545
     38 H8         -1.6750    4.3615   -9.2241 H           1 KR2       0.0285
     39 H9         -1.2606    3.1225  -10.3976 H           1 KR2       0.0285
     40 H10         0.7392    3.4716   -9.1933 H           1 KR2       0.0267
     41 H11         0.1227    1.9536   -8.5729 H           1 KR2       0.0267
     42 H12        -0.1155    4.6959   -7.2243 H           1 KR2       0.0285
     43 H13         0.9955    3.4189   -6.7589 H           1 KR2       0.0285
     44 H14        -0.8671    3.2781   -5.2040 H           1 KR2       0.0546
     45 H15        -0.9369    1.9218   -6.2533 H           1 KR2       0.0546
     46 H16        -2.4749    6.5513   -6.0476 H           1 KR2       0.0561
     47 H17        -1.3745    5.4707   -5.3317 H           1 KR2       0.0561
     48 H18        -4.0043    6.4519   -4.2621 H           1 KR2       0.0898
     49 H19        -2.6934    6.8083   -2.3551 H           1 KR2       0.2000
     50 H20        -1.8754    7.3884   -3.6767 H           1 KR2       0.2000
     51 H21        -1.4150    5.9561   -2.9719 H           1 KR2       0.2000
     52 H22        -2.7905    3.7832   -3.5215 H           1 KR2       0.0467
     53 H23        -4.4444    4.1326   -3.9567 H           1 KR2       0.0467
     54 H24        -2.1563    3.8388   -1.2305 H           1 KR2       0.0522
     55 H25        -6.4135    5.8078    0.0321 H           1 KR2       0.0562
@<TRIPOS>BOND
     1     1     2  ar
     2     1     6  ar
     3     2     3  ar
     4     3     4  ar
     5     4     5  ar
     6     5     6  ar
     7     6     7   1
     8     7     8   2
     9     7     9  am
    10     9    10   1
    11     9    15   1
    12    10    11   1
    13    11    12   1
    14    12    13   1
    15    13    14   1
    16    14    15   1
    17    15    16  am
    18    16    17   2
    19    16    18   1
    20    18    19   1
    21    19    20   1
    22    19    21   1
    23    21    22   1
    24    22    23  ar
    25    22    29  ar
    26    23    24  ar
    27    24    25   1
    28    24    26  ar
    29    26    27   1
    30    26    28  ar
    31    28    29  ar
    32    29    30   1
    33     1    31   1
    34     2    32   1
    35     3    33   1
    36     4    34   1
    37     5    35   1
    38    10    36   1
    39    10    37   1
    40    11    38   1
    41    11    39   1
    42    12    40   1
    43    12    41   1
    44    13    42   1
    45    13    43   1
    46    14    44   1
    47    14    45   1
    48    18    46   1
    49    18    47   1
    50    19    48   1
    51    20    49   1
    52    20    50   1
    53    20    51   1
    54    21    52   1
    55    21    53   1
    56    23    54   1
    57    28    55   1
@<TRIPOS>SUBSTRUCTURE
     1  KR2      1

