@<TRIPOS>MOLECULE
2ole_ligand_069
    55    57
SMALL
GAST_HUCK
****
This file was generated by PARSER (from files_GN.cpp)

@<TRIPOS>ATOM
      1 CAY        -2.3432    6.2806   -9.3595 C.ar        1 KR2      -0.0419
      2 CBC        -1.9613    7.6093   -9.6280 C.ar        1 KR2      -0.0562
      3 CBB        -2.5900    8.6700   -8.9525 C.ar        1 KR2      -0.0575
      4 CBA        -3.6014    8.4042   -8.0124 C.ar        1 KR2      -0.0562
      5 CAZ        -3.9814    7.0744   -7.7419 C.ar        1 KR2      -0.0419
      6 CAX        -3.3453    5.9967   -8.4005 C.ar        1 KR2       0.0519
      7 CAW        -3.7100    4.6810   -8.1551 C.2         1 KR2       0.2286
      8 OAA        -4.2828    4.1250   -9.0865 O.2         1 KR2      -0.3825
      9 NAR        -3.3684    3.9890   -7.0468 N.am        1 KR2      -0.1656
     10 CAV        -3.5897    2.5621   -6.9346 C.3         1 KR2       0.0587
     11 CDD        -2.4910    1.7674   -7.6886 C.3         1 KR2      -0.0303
     12 CNN        -1.0551    2.0134   -7.1505 C.3         1 KR2      -0.0492
     13 CAT        -0.5859    3.4956   -7.1888 C.3         1 KR2      -0.0302
     14 CAS        -1.2154    4.3929   -6.0842 C.3         1 KR2       0.0592
     15 NAQ        -2.6609    4.5437   -6.0605 N.am        1 KR2      -0.1666
     16 CAO        -3.3099    5.1762   -5.0550 C.2         1 KR2       0.2052
     17 OAP        -4.5322    5.2245   -5.0895 O.2         1 KR2      -0.3947
     18 CAN        -2.6386    5.8206   -3.9195 C.3         1 KR2       0.0838
     19 CAL        -3.5119    6.6134   -2.8905 C.3         1 KR2       0.0010
     20 NAM        -2.6482    7.3717   -1.9636 N.4         1 KR2       0.2238
     21 CAK        -4.5746    5.7911   -2.0833 C.3         1 KR2       0.0243
     22 CAG        -4.1184    4.4442   -1.6242 C.ar        1 KR2      -0.0094
     23 CAH        -3.1296    4.3427   -0.6176 C.ar        1 KR2      -0.0298
     24 CAC        -2.6225    3.0932   -0.2140 C.ar        1 KR2       0.1544
     25 FAB        -1.6732    3.0503    0.6793 F           1 KR2      -0.1895
     26 CAD        -3.1262    1.9119   -0.7910 C.ar        1 KR2       0.1560
     27 FAI        -2.6772    0.7372   -0.4385 F           1 KR2      -0.1911
     28 CAE        -4.1335    1.9909   -1.7731 C.ar        1 KR2      -0.0030
     29 CAF        -4.6195    3.2413   -2.1942 C.ar        1 KR2       0.1274
     30 FAJ        -5.5090    3.2463   -3.1469 F           1 KR2      -0.1934
     31 H1         -1.8799    5.5221   -9.8678 H           1 KR2       0.0669
     32 H2         -1.2295    7.8016  -10.3156 H           1 KR2       0.0629
     33 H3         -2.3171    9.6350   -9.1515 H           1 KR2       0.0653
     34 H4         -4.0652    9.1778   -7.5308 H           1 KR2       0.0629
     35 H5         -4.7391    6.9075   -7.0776 H           1 KR2       0.0669
     36 H6         -4.5747    2.2877   -7.3251 H           1 KR2       0.0545
     37 H7         -3.5823    2.2495   -5.8842 H           1 KR2       0.0545
     38 H8         -2.5231    2.0204   -8.7531 H           1 KR2       0.0285
     39 H9         -2.7143    0.6990   -7.6021 H           1 KR2       0.0285
     40 H10        -0.3650    1.4213   -7.7601 H           1 KR2       0.0267
     41 H11        -0.9880    1.6359   -6.1270 H           1 KR2       0.0267
     42 H12        -0.7941    3.9163   -8.1739 H           1 KR2       0.0285
     43 H13         0.4996    3.5110   -7.0562 H           1 KR2       0.0285
     44 H14        -0.7766    5.3867   -6.1936 H           1 KR2       0.0546
     45 H15        -0.8780    3.9845   -5.1284 H           1 KR2       0.0546
     46 H16        -1.9191    6.5311   -4.3355 H           1 KR2       0.0561
     47 H17        -2.0736    5.0625   -3.3725 H           1 KR2       0.0561
     48 H18        -4.0508    7.3722   -3.4598 H           1 KR2       0.0898
     49 H19        -3.2326    7.9752   -1.3807 H           1 KR2       0.2000
     50 H20        -1.9920    7.9543   -2.4862 H           1 KR2       0.2000
     51 H21        -2.1137    6.7531   -1.3538 H           1 KR2       0.2000
     52 H22        -5.4741    5.7007   -2.6933 H           1 KR2       0.0467
     53 H23        -4.8929    6.3700   -1.2088 H           1 KR2       0.0467
     54 H24        -2.7616    5.1853   -0.1710 H           1 KR2       0.0522
     55 H25        -4.4969    1.1310   -2.1899 H           1 KR2       0.0562
@<TRIPOS>BOND
     1     1     2  ar
     2     1     6  ar
     3     2     3  ar
     4     3     4  ar
     5     4     5  ar
     6     5     6  ar
     7     6     7   1
     8     7     8   2
     9     7     9  am
    10     9    10   1
    11     9    15   1
    12    10    11   1
    13    11    12   1
    14    12    13   1
    15    13    14   1
    16    14    15   1
    17    15    16  am
    18    16    17   2
    19    16    18   1
    20    18    19   1
    21    19    20   1
    22    19    21   1
    23    21    22   1
    24    22    23  ar
    25    22    29  ar
    26    23    24  ar
    27    24    25   1
    28    24    26  ar
    29    26    27   1
    30    26    28  ar
    31    28    29  ar
    32    29    30   1
    33     1    31   1
    34     2    32   1
    35     3    33   1
    36     4    34   1
    37     5    35   1
    38    10    36   1
    39    10    37   1
    40    11    38   1
    41    11    39   1
    42    12    40   1
    43    12    41   1
    44    13    42   1
    45    13    43   1
    46    14    44   1
    47    14    45   1
    48    18    46   1
    49    18    47   1
    50    19    48   1
    51    20    49   1
    52    20    50   1
    53    20    51   1
    54    21    52   1
    55    21    53   1
    56    23    54   1
    57    28    55   1
@<TRIPOS>SUBSTRUCTURE
     1  KR2      1

