@<TRIPOS>MOLECULE
2ole_ligand_076
    55    57
SMALL
GAST_HUCK
****
This file was generated by PARSER (from files_GN.cpp)

@<TRIPOS>ATOM
      1 CAY        -8.9297    0.7722   -4.7099 C.ar        1 KR2      -0.0419
      2 CBC        -9.9440    0.2161   -5.5131 C.ar        1 KR2      -0.0562
      3 CBB       -10.0108    0.5312   -6.8818 C.ar        1 KR2      -0.0575
      4 CBA        -9.0705    1.4108   -7.4490 C.ar        1 KR2      -0.0562
      5 CAZ        -8.0567    1.9691   -6.6494 C.ar        1 KR2      -0.0419
      6 CAX        -7.9700    1.6417   -5.2765 C.ar        1 KR2       0.0519
      7 CAW        -6.9514    2.1732   -4.5042 C.2         1 KR2       0.2286
      8 OAA        -7.1124    3.3494   -4.1965 O.2         1 KR2      -0.3825
      9 NAR        -5.8239    1.5179   -4.1586 N.am        1 KR2      -0.1656
     10 CAV        -5.5936    0.1295   -4.5350 C.3         1 KR2       0.0587
     11 CDD        -4.3970   -0.5780   -3.8441 C.3         1 KR2      -0.0303
     12 CNN        -4.5593   -0.6998   -2.3015 C.3         1 KR2      -0.0492
     13 CAT        -5.1729    0.5335   -1.5789 C.3         1 KR2      -0.0302
     14 CAS        -4.6292    1.8930   -2.0943 C.3         1 KR2       0.0592
     15 NAQ        -4.8543    2.1859   -3.5038 N.am        1 KR2      -0.1666
     16 CAO        -4.1337    3.1168   -4.1604 C.2         1 KR2       0.2052
     17 OAP        -4.1863    3.1390   -5.3869 O.2         1 KR2      -0.3947
     18 CAN        -3.2995    4.1309   -3.5131 C.3         1 KR2       0.0838
     19 CAL        -3.0716    5.4717   -4.2822 C.3         1 KR2       0.0010
     20 NAM        -2.2571    6.3565   -3.4214 N.4         1 KR2       0.2238
     21 CAK        -4.3859    6.2142   -4.7221 C.3         1 KR2       0.0243
     22 CAG        -4.2986    6.7602   -6.1104 C.ar        1 KR2      -0.0094
     23 CAH        -4.7616    5.9903   -7.2067 C.ar        1 KR2      -0.0298
     24 CAC        -4.6277    6.4531   -8.5294 C.ar        1 KR2       0.1544
     25 FAB        -5.0569    5.7151   -9.5194 F           1 KR2      -0.1895
     26 CAD        -4.0178    7.6968   -8.7768 C.ar        1 KR2       0.1560
     27 FAI        -3.8665    8.1313   -9.9993 F           1 KR2      -0.1911
     28 CAE        -3.5739    8.4847   -7.6991 C.ar        1 KR2      -0.0030
     29 CAF        -3.7066    8.0212   -6.3746 C.ar        1 KR2       0.1274
     30 FAJ        -3.2683    8.7801   -5.4047 F           1 KR2      -0.1934
     31 H1         -8.8970    0.5351   -3.7140 H           1 KR2       0.0669
     32 H2        -10.6327   -0.4157   -5.0992 H           1 KR2       0.0629
     33 H3        -10.7450    0.1233   -7.4648 H           1 KR2       0.0653
     34 H4         -9.1210    1.6413   -8.4429 H           1 KR2       0.0629
     35 H5         -7.3768    2.6031   -7.0782 H           1 KR2       0.0669
     36 H6         -5.4443    0.0917   -5.6181 H           1 KR2       0.0545
     37 H7         -6.4768   -0.4711   -4.3017 H           1 KR2       0.0545
     38 H8         -3.4784   -0.0325   -4.0741 H           1 KR2       0.0285
     39 H9         -4.2890   -1.5810   -4.2662 H           1 KR2       0.0285
     40 H10        -3.5753   -0.9059   -1.8749 H           1 KR2       0.0267
     41 H11        -5.1942   -1.5637   -2.0832 H           1 KR2       0.0267
     42 H12        -4.9644    0.4542   -0.5089 H           1 KR2       0.0285
     43 H13        -6.2608    0.5237   -1.6972 H           1 KR2       0.0285
     44 H14        -3.5531    1.8896   -1.8896 H           1 KR2       0.0546
     45 H15        -5.0849    2.6890   -1.4983 H           1 KR2       0.0546
     46 H16        -2.3260    3.6791   -3.3031 H           1 KR2       0.0561
     47 H17        -3.7507    4.3984   -2.5549 H           1 KR2       0.0561
     48 H18        -2.4521    5.2334   -5.1516 H           1 KR2       0.0898
     49 H19        -2.0172    7.2194   -3.9120 H           1 KR2       0.2000
     50 H20        -1.3932    5.8870   -3.1453 H           1 KR2       0.2000
     51 H21        -2.7850    6.5937   -2.5800 H           1 KR2       0.2000
     52 H22        -4.6146    7.0228   -4.0218 H           1 KR2       0.0467
     53 H23        -5.2485    5.5450   -4.6668 H           1 KR2       0.0467
     54 H24        -5.1951    5.0769   -7.0484 H           1 KR2       0.0522
     55 H25        -3.1439    9.3960   -7.8787 H           1 KR2       0.0562
@<TRIPOS>BOND
     1     1     2  ar
     2     1     6  ar
     3     2     3  ar
     4     3     4  ar
     5     4     5  ar
     6     5     6  ar
     7     6     7   1
     8     7     8   2
     9     7     9  am
    10     9    10   1
    11     9    15   1
    12    10    11   1
    13    11    12   1
    14    12    13   1
    15    13    14   1
    16    14    15   1
    17    15    16  am
    18    16    17   2
    19    16    18   1
    20    18    19   1
    21    19    20   1
    22    19    21   1
    23    21    22   1
    24    22    23  ar
    25    22    29  ar
    26    23    24  ar
    27    24    25   1
    28    24    26  ar
    29    26    27   1
    30    26    28  ar
    31    28    29  ar
    32    29    30   1
    33     1    31   1
    34     2    32   1
    35     3    33   1
    36     4    34   1
    37     5    35   1
    38    10    36   1
    39    10    37   1
    40    11    38   1
    41    11    39   1
    42    12    40   1
    43    12    41   1
    44    13    42   1
    45    13    43   1
    46    14    44   1
    47    14    45   1
    48    18    46   1
    49    18    47   1
    50    19    48   1
    51    20    49   1
    52    20    50   1
    53    20    51   1
    54    21    52   1
    55    21    53   1
    56    23    54   1
    57    28    55   1
@<TRIPOS>SUBSTRUCTURE
     1  KR2      1

