@<TRIPOS>MOLECULE
2ole_ligand_033
    55    57
SMALL
GAST_HUCK
****
This file was generated by PARSER (from files_GN.cpp)

@<TRIPOS>ATOM
      1 CAY        -7.2224    3.8193   -7.7297 C.ar        1 KR2      -0.0419
      2 CBC        -8.6031    4.0195   -7.5394 C.ar        1 KR2      -0.0562
      3 CBB        -9.0680    4.5371   -6.3176 C.ar        1 KR2      -0.0575
      4 CBA        -8.1448    4.8428   -5.2993 C.ar        1 KR2      -0.0562
      5 CAZ        -6.7683    4.6361   -5.4897 C.ar        1 KR2      -0.0419
      6 CAX        -6.2733    4.1331   -6.7091 C.ar        1 KR2       0.0519
      7 CAW        -4.8953    3.8577   -6.9335 C.2         1 KR2       0.2286
      8 OAA        -4.6777    2.8318   -7.5748 O.2         1 KR2      -0.3825
      9 NAR        -3.8341    4.6192   -6.5932 N.am        1 KR2      -0.1656
     10 CAV        -2.5025    4.3350   -7.1284 C.3         1 KR2       0.0587
     11 CDD        -1.4115    5.4385   -7.0126 C.3         1 KR2      -0.0303
     12 CNN        -1.7990    6.7911   -7.6751 C.3         1 KR2      -0.0492
     13 CAT        -2.8263    7.6496   -6.8872 C.3         1 KR2      -0.0302
     14 CAS        -4.1779    6.9402   -6.5780 C.3         1 KR2       0.0592
     15 NAQ        -3.9721    5.7101   -5.8359 N.am        1 KR2      -0.1666
     16 CAO        -3.6257    5.6713   -4.5219 C.2         1 KR2       0.2052
     17 OAP        -3.0810    4.6670   -4.0902 O.2         1 KR2      -0.3947
     18 CAN        -3.9456    6.7287   -3.5614 C.3         1 KR2       0.0838
     19 CAL        -3.2400    6.7947   -2.1639 C.3         1 KR2       0.0010
     20 NAM        -1.7811    6.6956   -2.2813 N.4         1 KR2       0.2238
     21 CAK        -3.8282    5.9072   -1.0211 C.3         1 KR2       0.0243
     22 CAG        -3.8354    4.4382   -1.2417 C.ar        1 KR2      -0.0094
     23 CAH        -4.7619    3.8719   -2.1458 C.ar        1 KR2      -0.0298
     24 CAC        -4.7906    2.4871   -2.4043 C.ar        1 KR2       0.1544
     25 FAB        -5.6377    2.0087   -3.2737 F           1 KR2      -0.1895
     26 CAD        -3.8756    1.6433   -1.7511 C.ar        1 KR2       0.1560
     27 FAI        -3.8699    0.3602   -1.9904 F           1 KR2      -0.1911
     28 CAE        -2.9752    2.1823   -0.8119 C.ar        1 KR2      -0.0030
     29 CAF        -2.9352    3.5669   -0.5725 C.ar        1 KR2       0.1274
     30 FAJ        -2.0665    4.0182    0.2917 F           1 KR2      -0.1934
     31 H1         -6.9144    3.4402   -8.6363 H           1 KR2       0.0669
     32 H2         -9.2559    3.8017   -8.2818 H           1 KR2       0.0629
     33 H3        -10.0754    4.6833   -6.1714 H           1 KR2       0.0653
     34 H4         -8.4913    5.2133   -4.4034 H           1 KR2       0.0629
     35 H5         -6.1547    4.8155   -4.7159 H           1 KR2       0.0669
     36 H6         -2.5969    4.1144   -8.1984 H           1 KR2       0.0545
     37 H7         -2.1264    3.4247   -6.6438 H           1 KR2       0.0545
     38 H8         -0.5065    5.0588   -7.5030 H           1 KR2       0.0285
     39 H9         -1.1525    5.5962   -5.9619 H           1 KR2       0.0285
     40 H10        -2.1789    6.6005   -8.6813 H           1 KR2       0.0267
     41 H11        -0.8888    7.3832   -7.7822 H           1 KR2       0.0267
     42 H12        -3.0396    8.5498   -7.4683 H           1 KR2       0.0285
     43 H13        -2.3607    7.9735   -5.9557 H           1 KR2       0.0285
     44 H14        -4.6773    6.7364   -7.5291 H           1 KR2       0.0546
     45 H15        -4.8416    7.6154   -6.0313 H           1 KR2       0.0546
     46 H16        -5.0207    6.6876   -3.3987 H           1 KR2       0.0561
     47 H17        -3.7399    7.7013   -4.0342 H           1 KR2       0.0561
     48 H18        -3.3951    7.8272   -1.8057 H           1 KR2       0.0898
     49 H19        -1.3467    6.9388   -1.3874 H           1 KR2       0.2000
     50 H20        -1.4580    7.3546   -2.9912 H           1 KR2       0.2000
     51 H21        -1.4848    5.7538   -2.5428 H           1 KR2       0.2000
     52 H22        -4.8478    6.2512   -0.8219 H           1 KR2       0.0467
     53 H23        -3.2734    6.1211   -0.1008 H           1 KR2       0.0467
     54 H24        -5.4370    4.4794   -2.6211 H           1 KR2       0.0522
     55 H25        -2.3229    1.5634   -0.3266 H           1 KR2       0.0562
@<TRIPOS>BOND
     1     1     2  ar
     2     1     6  ar
     3     2     3  ar
     4     3     4  ar
     5     4     5  ar
     6     5     6  ar
     7     6     7   1
     8     7     8   2
     9     7     9  am
    10     9    10   1
    11     9    15   1
    12    10    11   1
    13    11    12   1
    14    12    13   1
    15    13    14   1
    16    14    15   1
    17    15    16  am
    18    16    17   2
    19    16    18   1
    20    18    19   1
    21    19    20   1
    22    19    21   1
    23    21    22   1
    24    22    23  ar
    25    22    29  ar
    26    23    24  ar
    27    24    25   1
    28    24    26  ar
    29    26    27   1
    30    26    28  ar
    31    28    29  ar
    32    29    30   1
    33     1    31   1
    34     2    32   1
    35     3    33   1
    36     4    34   1
    37     5    35   1
    38    10    36   1
    39    10    37   1
    40    11    38   1
    41    11    39   1
    42    12    40   1
    43    12    41   1
    44    13    42   1
    45    13    43   1
    46    14    44   1
    47    14    45   1
    48    18    46   1
    49    18    47   1
    50    19    48   1
    51    20    49   1
    52    20    50   1
    53    20    51   1
    54    21    52   1
    55    21    53   1
    56    23    54   1
    57    28    55   1
@<TRIPOS>SUBSTRUCTURE
     1  KR2      1

