@<TRIPOS>MOLECULE
2ole_ligand_031
    55    57
SMALL
GAST_HUCK
****
This file was generated by PARSER (from files_GN.cpp)

@<TRIPOS>ATOM
      1 CAY        -5.8095    5.5615  -10.3371 C.ar        1 KR2      -0.0419
      2 CBC        -6.8779    5.2146  -11.1928 C.ar        1 KR2      -0.0562
      3 CBB        -7.9439    4.4421  -10.7113 C.ar        1 KR2      -0.0575
      4 CBA        -7.9535    4.0136   -9.3700 C.ar        1 KR2      -0.0562
      5 CAZ        -6.8916    4.3616   -8.5148 C.ar        1 KR2      -0.0419
      6 CAX        -5.8026    5.1288   -8.9916 C.ar        1 KR2       0.0519
      7 CAW        -4.7551    5.4681   -8.1435 C.2         1 KR2       0.2286
      8 OAA        -4.6345    6.6674   -7.9292 O.2         1 KR2      -0.3825
      9 NAR        -3.8922    4.5907   -7.5888 N.am        1 KR2      -0.1656
     10 CAV        -3.8601    3.1907   -7.9731 C.3         1 KR2       0.0587
     11 CDD        -2.7242    2.2871   -7.4076 C.3         1 KR2      -0.0303
     12 CNN        -1.2864    2.7163   -7.8133 C.3         1 KR2      -0.0492
     13 CAT        -0.7635    3.9691   -7.0629 C.3         1 KR2      -0.0302
     14 CAS        -1.6447    5.2281   -7.2706 C.3         1 KR2       0.0592
     15 NAQ        -2.9775    5.0407   -6.7234 N.am        1 KR2      -0.1666
     16 CAO        -3.3156    5.2659   -5.4379 C.2         1 KR2       0.2052
     17 OAP        -4.4474    4.9719   -5.0589 O.2         1 KR2      -0.3947
     18 CAN        -2.4428    5.9425   -4.4812 C.3         1 KR2       0.0838
     19 CAL        -2.8788    6.0739   -2.9851 C.3         1 KR2       0.0010
     20 NAM        -1.7812    6.7497   -2.2630 N.4         1 KR2       0.2238
     21 CAK        -3.2624    4.7210   -2.2950 C.3         1 KR2       0.0243
     22 CAG        -3.4277    4.8057   -0.8097 C.ar        1 KR2      -0.0094
     23 CAH        -2.4077    4.3197    0.0412 C.ar        1 KR2      -0.0298
     24 CAC        -2.4804    4.4706    1.4382 C.ar        1 KR2       0.1544
     25 FAB        -1.5174    4.0117    2.1847 F           1 KR2      -0.1895
     26 CAD        -3.5722    5.1499    2.0073 C.ar        1 KR2       0.1560
     27 FAI        -3.6280    5.3745    3.2917 F           1 KR2      -0.1911
     28 CAE        -4.6137    5.6173    1.1821 C.ar        1 KR2      -0.0030
     29 CAF        -4.5625    5.4187   -0.2101 C.ar        1 KR2       0.1274
     30 FAJ        -5.5713    5.8401   -0.9217 F           1 KR2      -0.1934
     31 H1         -5.0354    6.1126  -10.7134 H           1 KR2       0.0669
     32 H2         -6.8689    5.5224  -12.1694 H           1 KR2       0.0629
     33 H3         -8.7165    4.1924  -11.3313 H           1 KR2       0.0653
     34 H4         -8.7277    3.4478   -9.0211 H           1 KR2       0.0629
     35 H5         -6.9259    4.0549   -7.5367 H           1 KR2       0.0669
     36 H6         -3.8003    3.1338   -9.0632 H           1 KR2       0.0545
     37 H7         -4.8027    2.7289   -7.6682 H           1 KR2       0.0545
     38 H8         -2.8876    1.2713   -7.7826 H           1 KR2       0.0285
     39 H9         -2.7989    2.2442   -6.3164 H           1 KR2       0.0285
     40 H10        -1.2421    2.8888   -8.8922 H           1 KR2       0.0267
     41 H11        -0.6054    1.8870   -7.5891 H           1 KR2       0.0267
     42 H12         0.2479    4.1863   -7.4168 H           1 KR2       0.0285
     43 H13        -0.6894    3.7380   -5.9961 H           1 KR2       0.0285
     44 H14        -1.7022    5.4341   -8.3460 H           1 KR2       0.0546
     45 H15        -1.1451    6.0915   -6.8297 H           1 KR2       0.0546
     46 H16        -2.3294    6.9610   -4.8577 H           1 KR2       0.0561
     47 H17        -1.4631    5.4759   -4.4960 H           1 KR2       0.0561
     48 H18        -3.7429    6.7507   -2.9428 H           1 KR2       0.0898
     49 H19        -1.9941    6.8577   -1.2692 H           1 KR2       0.2000
     50 H20        -1.6256    7.6714   -2.6692 H           1 KR2       0.2000
     51 H21        -0.9355    6.1864   -2.3603 H           1 KR2       0.2000
     52 H22        -2.4875    3.9984   -2.5427 H           1 KR2       0.0467
     53 H23        -4.1958    4.3507   -2.7221 H           1 KR2       0.0467
     54 H24        -1.5841    3.8601   -0.3556 H           1 KR2       0.0522
     55 H25        -5.4107    6.1107    1.6027 H           1 KR2       0.0562
@<TRIPOS>BOND
     1     1     2  ar
     2     1     6  ar
     3     2     3  ar
     4     3     4  ar
     5     4     5  ar
     6     5     6  ar
     7     6     7   1
     8     7     8   2
     9     7     9  am
    10     9    10   1
    11     9    15   1
    12    10    11   1
    13    11    12   1
    14    12    13   1
    15    13    14   1
    16    14    15   1
    17    15    16  am
    18    16    17   2
    19    16    18   1
    20    18    19   1
    21    19    20   1
    22    19    21   1
    23    21    22   1
    24    22    23  ar
    25    22    29  ar
    26    23    24  ar
    27    24    25   1
    28    24    26  ar
    29    26    27   1
    30    26    28  ar
    31    28    29  ar
    32    29    30   1
    33     1    31   1
    34     2    32   1
    35     3    33   1
    36     4    34   1
    37     5    35   1
    38    10    36   1
    39    10    37   1
    40    11    38   1
    41    11    39   1
    42    12    40   1
    43    12    41   1
    44    13    42   1
    45    13    43   1
    46    14    44   1
    47    14    45   1
    48    18    46   1
    49    18    47   1
    50    19    48   1
    51    20    49   1
    52    20    50   1
    53    20    51   1
    54    21    52   1
    55    21    53   1
    56    23    54   1
    57    28    55   1
@<TRIPOS>SUBSTRUCTURE
     1  KR2      1

