@<TRIPOS>MOLECULE
2ole_ligand_079
    55    57
SMALL
GAST_HUCK
****
This file was generated by PARSER (from files_GN.cpp)

@<TRIPOS>ATOM
      1 CAY        -4.1664    7.1923  -10.3848 C.ar        1 KR2      -0.0419
      2 CBC        -4.7608    7.4181  -11.6395 C.ar        1 KR2      -0.0562
      3 CBB        -4.2547    6.7766  -12.7847 C.ar        1 KR2      -0.0575
      4 CBA        -3.1531    5.9065  -12.6747 C.ar        1 KR2      -0.0562
      5 CAZ        -2.5588    5.6765  -11.4210 C.ar        1 KR2      -0.0419
      6 CAX        -3.0613    6.3171  -10.2647 C.ar        1 KR2       0.0519
      7 CAW        -2.4905    6.0845   -9.0262 C.2         1 KR2       0.2286
      8 OAA        -1.6903    6.9422   -8.6623 O.2         1 KR2      -0.3825
      9 NAR        -2.7885    5.0430   -8.2271 N.am        1 KR2      -0.1656
     10 CAV        -3.7486    4.0227   -8.6246 C.3         1 KR2       0.0587
     11 CDD        -3.9694    2.8293   -7.6557 C.3         1 KR2      -0.0303
     12 CNN        -2.7037    1.9627   -7.4155 C.3         1 KR2      -0.0492
     13 CAT        -1.6484    2.5981   -6.4701 C.3         1 KR2      -0.0302
     14 CAS        -1.1317    3.9871   -6.9293 C.3         1 KR2       0.0592
     15 NAQ        -2.2096    4.9495   -7.0277 N.am        1 KR2      -0.1666
     16 CAO        -2.7117    5.6442   -5.9799 C.2         1 KR2       0.2052
     17 OAP        -3.6648    6.3890   -6.1874 O.2         1 KR2      -0.3947
     18 CAN        -2.1003    5.7180   -4.6516 C.3         1 KR2       0.0838
     19 CAL        -2.9780    6.2254   -3.4583 C.3         1 KR2       0.0010
     20 NAM        -2.0922    6.6717   -2.3705 N.4         1 KR2       0.2238
     21 CAK        -3.9550    5.1586   -2.8662 C.3         1 KR2       0.0243
     22 CAG        -5.0184    4.6029   -3.7605 C.ar        1 KR2      -0.0094
     23 CAH        -5.1133    3.2030   -3.9645 C.ar        1 KR2      -0.0298
     24 CAC        -6.1765    2.6443   -4.7055 C.ar        1 KR2       0.1544
     25 FAB        -6.2444    1.3505   -4.8660 F           1 KR2      -0.1895
     26 CAD        -7.1494    3.4844   -5.2759 C.ar        1 KR2       0.1560
     27 FAI        -8.1437    2.9866   -5.9640 F           1 KR2      -0.1911
     28 CAE        -7.0645    4.8733   -5.0973 C.ar        1 KR2      -0.0030
     29 CAF        -6.0215    5.4303   -4.3315 C.ar        1 KR2       0.1274
     30 FAJ        -6.0425    6.7223   -4.1535 F           1 KR2      -0.1934
     31 H1         -4.5481    7.6613   -9.5597 H           1 KR2       0.0669
     32 H2         -5.5624    8.0475  -11.7192 H           1 KR2       0.0629
     33 H3         -4.6863    6.9409  -13.6968 H           1 KR2       0.0653
     34 H4         -2.7862    5.4407  -13.5071 H           1 KR2       0.0629
     35 H5         -1.7604    5.0385  -11.3581 H           1 KR2       0.0669
     36 H6         -3.4474    3.6020   -9.5883 H           1 KR2       0.0545
     37 H7         -4.7193    4.5084   -8.7655 H           1 KR2       0.0545
     38 H8         -4.7519    2.1908   -8.0748 H           1 KR2       0.0285
     39 H9         -4.3371    3.2111   -6.7047 H           1 KR2       0.0285
     40 H10        -2.2364    1.7262   -8.3754 H           1 KR2       0.0267
     41 H11        -3.0205    1.0166   -6.9675 H           1 KR2       0.0267
     42 H12        -0.7955    1.9162   -6.4052 H           1 KR2       0.0285
     43 H13        -2.0742    2.6760   -5.4681 H           1 KR2       0.0285
     44 H14        -0.6415    3.8631   -7.9013 H           1 KR2       0.0546
     45 H15        -0.3505    4.3348   -6.2495 H           1 KR2       0.0546
     46 H16        -1.2365    6.3839   -4.7567 H           1 KR2       0.0561
     47 H17        -1.7137    4.7395   -4.3615 H           1 KR2       0.0561
     48 H18        -3.5291    7.1186   -3.7559 H           1 KR2       0.0898
     49 H19        -2.6441    6.8641   -1.5299 H           1 KR2       0.2000
     50 H20        -1.6107    7.5294   -2.6472 H           1 KR2       0.2000
     51 H21        -1.4015    5.9454   -2.1706 H           1 KR2       0.2000
     52 H22        -4.4715    5.6011   -2.0097 H           1 KR2       0.0467
     53 H23        -3.3411    4.3446   -2.4588 H           1 KR2       0.0467
     54 H24        -4.4169    2.5725   -3.5585 H           1 KR2       0.0522
     55 H25        -7.7763    5.4861   -5.5055 H           1 KR2       0.0562
@<TRIPOS>BOND
     1     1     2  ar
     2     1     6  ar
     3     2     3  ar
     4     3     4  ar
     5     4     5  ar
     6     5     6  ar
     7     6     7   1
     8     7     8   2
     9     7     9  am
    10     9    10   1
    11     9    15   1
    12    10    11   1
    13    11    12   1
    14    12    13   1
    15    13    14   1
    16    14    15   1
    17    15    16  am
    18    16    17   2
    19    16    18   1
    20    18    19   1
    21    19    20   1
    22    19    21   1
    23    21    22   1
    24    22    23  ar
    25    22    29  ar
    26    23    24  ar
    27    24    25   1
    28    24    26  ar
    29    26    27   1
    30    26    28  ar
    31    28    29  ar
    32    29    30   1
    33     1    31   1
    34     2    32   1
    35     3    33   1
    36     4    34   1
    37     5    35   1
    38    10    36   1
    39    10    37   1
    40    11    38   1
    41    11    39   1
    42    12    40   1
    43    12    41   1
    44    13    42   1
    45    13    43   1
    46    14    44   1
    47    14    45   1
    48    18    46   1
    49    18    47   1
    50    19    48   1
    51    20    49   1
    52    20    50   1
    53    20    51   1
    54    21    52   1
    55    21    53   1
    56    23    54   1
    57    28    55   1
@<TRIPOS>SUBSTRUCTURE
     1  KR2      1

