@<TRIPOS>MOLECULE
2ole_ligand_016
    55    57
SMALL
GAST_HUCK
****
This file was generated by PARSER (from files_GN.cpp)

@<TRIPOS>ATOM
      1 CAY        -1.5689    3.4742   -5.5610 C.ar        1 KR2      -0.0419
      2 CBC        -0.3044    3.9650   -5.9283 C.ar        1 KR2      -0.0562
      3 CBB         0.1204    3.8790   -7.2651 C.ar        1 KR2      -0.0575
      4 CBA        -0.7261    3.3088   -8.2325 C.ar        1 KR2      -0.0562
      5 CAZ        -1.9991    2.8400   -7.8659 C.ar        1 KR2      -0.0419
      6 CAX        -2.4528    2.9397   -6.5268 C.ar        1 KR2       0.0519
      7 CAW        -3.7169    2.4662   -6.1784 C.2         1 KR2       0.2286
      8 OAA        -3.9769    1.3447   -6.6025 O.2         1 KR2      -0.3825
      9 NAR        -4.6630    3.1628   -5.5148 N.am        1 KR2      -0.1656
     10 CAV        -6.0155    2.6556   -5.3620 C.3         1 KR2       0.0587
     11 CDD        -6.8368    2.8562   -6.6631 C.3         1 KR2      -0.0303
     12 CNN        -6.9632    4.3375   -7.1108 C.3         1 KR2      -0.0492
     13 CAT        -5.6128    5.0673   -7.3771 C.3         1 KR2      -0.0302
     14 CAS        -4.8743    5.4841   -6.0714 C.3         1 KR2       0.0592
     15 NAQ        -4.4950    4.4351   -5.1371 N.am        1 KR2      -0.1666
     16 CAO        -4.0582    4.7040   -3.8862 C.2         1 KR2       0.2052
     17 OAP        -3.8185    3.7445   -3.1599 O.2         1 KR2      -0.3947
     18 CAN        -3.9927    6.0433   -3.2807 C.3         1 KR2       0.0838
     19 CAL        -3.2334    6.3406   -1.9302 C.3         1 KR2       0.0010
     20 NAM        -1.8318    6.6797   -2.2582 N.4         1 KR2       0.2238
     21 CAK        -3.2541    5.3027   -0.7409 C.3         1 KR2       0.0243
     22 CAG        -4.1910    5.5265    0.4026 C.ar        1 KR2      -0.0094
     23 CAH        -3.7763    5.1925    1.7237 C.ar        1 KR2      -0.0298
     24 CAC        -4.6661    5.2305    2.8102 C.ar        1 KR2       0.1544
     25 FAB        -4.2691    4.8473    3.9936 F           1 KR2      -0.1895
     26 CAD        -6.0003    5.6487    2.6117 C.ar        1 KR2       0.1560
     27 FAI        -6.8455    5.6798    3.6033 F           1 KR2      -0.1911
     28 CAE        -6.4297    5.9832    1.3176 C.ar        1 KR2      -0.0030
     29 CAF        -5.5520    5.8960    0.2244 C.ar        1 KR2       0.1274
     30 FAJ        -6.0689    6.1056   -0.9504 F           1 KR2      -0.1934
     31 H1         -1.8196    3.4848   -4.5728 H           1 KR2       0.0669
     32 H2          0.3159    4.3695   -5.2262 H           1 KR2       0.0629
     33 H3          1.0456    4.2237   -7.5297 H           1 KR2       0.0653
     34 H4         -0.4139    3.2343   -9.2052 H           1 KR2       0.0629
     35 H5         -2.6008    2.4374   -8.5925 H           1 KR2       0.0669
     36 H6         -6.5361    3.1540   -4.5384 H           1 KR2       0.0545
     37 H7         -5.9969    1.5922   -5.1068 H           1 KR2       0.0545
     38 H8         -7.8410    2.4554   -6.5053 H           1 KR2       0.0285
     39 H9         -6.3823    2.2798   -7.4703 H           1 KR2       0.0285
     40 H10        -7.5349    4.8924   -6.3642 H           1 KR2       0.0267
     41 H11        -7.5396    4.3558   -8.0419 H           1 KR2       0.0267
     42 H12        -5.8187    5.9796   -7.9458 H           1 KR2       0.0285
     43 H13        -4.9650    4.4439   -7.9906 H           1 KR2       0.0285
     44 H14        -5.5355    6.1940   -5.5630 H           1 KR2       0.0546
     45 H15        -3.9654    6.0205   -6.3600 H           1 KR2       0.0546
     46 H16        -5.0243    6.3921   -3.1845 H           1 KR2       0.0561
     47 H17        -3.5533    6.7164   -4.0208 H           1 KR2       0.0561
     48 H18        -3.6509    7.2769   -1.5397 H           1 KR2       0.0898
     49 H19        -1.3519    6.9806   -1.4054 H           1 KR2       0.2000
     50 H20        -1.7960    7.4420   -2.9436 H           1 KR2       0.2000
     51 H21        -1.3488    5.8631   -2.6357 H           1 KR2       0.2000
     52 H22        -2.2338    5.2624   -0.3399 H           1 KR2       0.0467
     53 H23        -3.4336    4.2952   -1.0881 H           1 KR2       0.0467
     54 H24        -2.8216    4.8617    1.8976 H           1 KR2       0.0522
     55 H25        -7.4000    6.2600    1.1634 H           1 KR2       0.0562
@<TRIPOS>BOND
     1     1     2  ar
     2     1     6  ar
     3     2     3  ar
     4     3     4  ar
     5     4     5  ar
     6     5     6  ar
     7     6     7   1
     8     7     8   2
     9     7     9  am
    10     9    10   1
    11     9    15   1
    12    10    11   1
    13    11    12   1
    14    12    13   1
    15    13    14   1
    16    14    15   1
    17    15    16  am
    18    16    17   2
    19    16    18   1
    20    18    19   1
    21    19    20   1
    22    19    21   1
    23    21    22   1
    24    22    23  ar
    25    22    29  ar
    26    23    24  ar
    27    24    25   1
    28    24    26  ar
    29    26    27   1
    30    26    28  ar
    31    28    29  ar
    32    29    30   1
    33     1    31   1
    34     2    32   1
    35     3    33   1
    36     4    34   1
    37     5    35   1
    38    10    36   1
    39    10    37   1
    40    11    38   1
    41    11    39   1
    42    12    40   1
    43    12    41   1
    44    13    42   1
    45    13    43   1
    46    14    44   1
    47    14    45   1
    48    18    46   1
    49    18    47   1
    50    19    48   1
    51    20    49   1
    52    20    50   1
    53    20    51   1
    54    21    52   1
    55    21    53   1
    56    23    54   1
    57    28    55   1
@<TRIPOS>SUBSTRUCTURE
     1  KR2      1

