@<TRIPOS>MOLECULE
2ole_ligand_000
    55    57
SMALL
GAST_HUCK
****
This file was generated by PARSER (from files_GN.cpp)

@<TRIPOS>ATOM
      1 CAY        -2.0158    3.0708   -5.5486 C.ar        1 KR2      -0.0419
      2 CBC        -2.6720    1.9529   -5.0069 C.ar        1 KR2      -0.0562
      3 CBB        -3.5907    1.2250   -5.7818 C.ar        1 KR2      -0.0575
      4 CBA        -3.8509    1.6127   -7.1090 C.ar        1 KR2      -0.0562
      5 CAZ        -3.2038    2.7348   -7.6536 C.ar        1 KR2      -0.0419
      6 CAX        -2.2906    3.4863   -6.8736 C.ar        1 KR2       0.0519
      7 CAW        -1.6598    4.5908   -7.4271 C.2         1 KR2       0.2286
      8 OAA        -0.7280    4.3305   -8.1826 O.2         1 KR2      -0.3825
      9 NAR        -2.0633    5.8581   -7.2288 N.am        1 KR2      -0.1656
     10 CAV        -1.4915    6.9805   -7.9488 C.3         1 KR2       0.0587
     11 CDD        -2.1820    7.1789   -9.3215 C.3         1 KR2      -0.0303
     12 CNN        -3.6994    7.4922   -9.2245 C.3         1 KR2      -0.0492
     13 CAT        -4.5297    6.3997   -8.4944 C.3         1 KR2      -0.0302
     14 CAS        -4.3719    6.4035   -6.9450 C.3         1 KR2       0.0592
     15 NAQ        -3.0549    6.1602   -6.3817 N.am        1 KR2      -0.1666
     16 CAO        -2.7739    6.3054   -5.0687 C.2         1 KR2       0.2052
     17 OAP        -1.5980    6.1750   -4.7313 O.2         1 KR2      -0.3947
     18 CAN        -3.6641    6.9078   -4.0646 C.3         1 KR2       0.0838
     19 CAL        -3.4033    6.6435   -2.5403 C.3         1 KR2       0.0010
     20 NAM        -1.9732    6.7328   -2.1836 N.4         1 KR2       0.2238
     21 CAK        -4.0853    5.3406   -2.0093 C.3         1 KR2       0.0243
     22 CAG        -3.4052    4.7674   -0.8109 C.ar        1 KR2      -0.0094
     23 CAH        -2.4380    3.7527   -0.9948 C.ar        1 KR2      -0.0298
     24 CAC        -1.6428    3.3100    0.0747 C.ar        1 KR2       0.1544
     25 FAB        -0.7302    2.4035   -0.1428 F           1 KR2      -0.1895
     26 CAD        -1.8080    3.8765    1.3554 C.ar        1 KR2       0.1560
     27 FAI        -1.0404    3.5047    2.3445 F           1 KR2      -0.1911
     28 CAE        -2.7789    4.8723    1.5592 C.ar        1 KR2      -0.0030
     29 CAF        -3.5690    5.3239    0.4838 C.ar        1 KR2       0.1274
     30 FAJ        -4.4130    6.2976    0.7002 F           1 KR2      -0.1934
     31 H1         -1.3291    3.5670   -4.9746 H           1 KR2       0.0669
     32 H2         -2.4809    1.6671   -4.0455 H           1 KR2       0.0629
     33 H3         -4.0649    0.4138   -5.3837 H           1 KR2       0.0653
     34 H4         -4.5186    1.0830   -7.6737 H           1 KR2       0.0629
     35 H5         -3.4006    3.0036   -8.6228 H           1 KR2       0.0669
     36 H6         -0.4183    6.8419   -8.1045 H           1 KR2       0.0545
     37 H7         -1.5930    7.9063   -7.3725 H           1 KR2       0.0545
     38 H8         -2.0380    6.2865   -9.9369 H           1 KR2       0.0285
     39 H9         -1.6957    8.0145   -9.8306 H           1 KR2       0.0285
     40 H10        -4.0872    7.5990  -10.2429 H           1 KR2       0.0267
     41 H11        -3.8437    8.4539   -8.7241 H           1 KR2       0.0267
     42 H12        -4.2720    5.4166   -8.8965 H           1 KR2       0.0285
     43 H13        -5.5861    6.5726   -8.7205 H           1 KR2       0.0285
     44 H14        -5.0498    5.6436   -6.5459 H           1 KR2       0.0546
     45 H15        -4.7254    7.3785   -6.6015 H           1 KR2       0.0546
     46 H16        -4.7003    6.6186   -4.2670 H           1 KR2       0.0561
     47 H17        -3.6061    7.9867   -4.2355 H           1 KR2       0.0561
     48 H18        -3.8663    7.4698   -1.9995 H           1 KR2       0.0898
     49 H19        -1.8720    6.7615   -1.1661 H           1 KR2       0.2000
     50 H20        -1.5630    7.5792   -2.5746 H           1 KR2       0.2000
     51 H21        -1.4754    5.9113   -2.5355 H           1 KR2       0.2000
     52 H22        -4.1119    4.5940   -2.8107 H           1 KR2       0.0467
     53 H23        -5.1305    5.5510   -1.7555 H           1 KR2       0.0467
     54 H24        -2.2714    3.3680   -1.9277 H           1 KR2       0.0522
     55 H25        -2.8894    5.2933    2.4871 H           1 KR2       0.0562
@<TRIPOS>BOND
     1     1     2  ar
     2     1     6  ar
     3     2     3  ar
     4     3     4  ar
     5     4     5  ar
     6     5     6  ar
     7     6     7   1
     8     7     8   2
     9     7     9  am
    10     9    10   1
    11     9    15   1
    12    10    11   1
    13    11    12   1
    14    12    13   1
    15    13    14   1
    16    14    15   1
    17    15    16  am
    18    16    17   2
    19    16    18   1
    20    18    19   1
    21    19    20   1
    22    19    21   1
    23    21    22   1
    24    22    23  ar
    25    22    29  ar
    26    23    24  ar
    27    24    25   1
    28    24    26  ar
    29    26    27   1
    30    26    28  ar
    31    28    29  ar
    32    29    30   1
    33     1    31   1
    34     2    32   1
    35     3    33   1
    36     4    34   1
    37     5    35   1
    38    10    36   1
    39    10    37   1
    40    11    38   1
    41    11    39   1
    42    12    40   1
    43    12    41   1
    44    13    42   1
    45    13    43   1
    46    14    44   1
    47    14    45   1
    48    18    46   1
    49    18    47   1
    50    19    48   1
    51    20    49   1
    52    20    50   1
    53    20    51   1
    54    21    52   1
    55    21    53   1
    56    23    54   1
    57    28    55   1
@<TRIPOS>SUBSTRUCTURE
     1  KR2      1

