@<TRIPOS>MOLECULE
2ole_ligand_052
    55    57
SMALL
GAST_HUCK
****
This file was generated by PARSER (from files_GN.cpp)

@<TRIPOS>ATOM
      1 CAY        -4.8975    5.9179   -9.4164 C.ar        1 KR2      -0.0419
      2 CBC        -5.4521    5.8404  -10.7103 C.ar        1 KR2      -0.0562
      3 CBB        -4.6888    5.3358  -11.7755 C.ar        1 KR2      -0.0575
      4 CBA        -3.3623    4.9184  -11.5570 C.ar        1 KR2      -0.0562
      5 CAZ        -2.8008    5.0087  -10.2723 C.ar        1 KR2      -0.0419
      6 CAX        -3.5727    5.4804   -9.1839 C.ar        1 KR2       0.0519
      7 CAW        -3.0203    5.5552   -7.9211 C.2         1 KR2       0.2286
      8 OAA        -2.6957    6.6921   -7.5892 O.2         1 KR2      -0.3825
      9 NAR        -2.8232    4.5199   -7.0793 N.am        1 KR2      -0.1656
     10 CAV        -3.1894    3.1479   -7.3743 C.3         1 KR2       0.0587
     11 CDD        -2.0447    2.3516   -8.0556 C.3         1 KR2      -0.0303
     12 CNN        -0.7196    2.2980   -7.2541 C.3         1 KR2      -0.0492
     13 CAT        -0.1433    3.6805   -6.8493 C.3         1 KR2      -0.0302
     14 CAS        -0.8947    4.3508   -5.6642 C.3         1 KR2       0.0592
     15 NAQ        -2.2791    4.7360   -5.8772 N.am        1 KR2      -0.1666
     16 CAO        -3.0211    5.3370   -4.9219 C.2         1 KR2       0.2052
     17 OAP        -4.1851    5.6210   -5.1778 O.2         1 KR2      -0.3947
     18 CAN        -2.5035    5.7395   -3.6112 C.3         1 KR2       0.0838
     19 CAL        -3.4871    6.4883   -2.6489 C.3         1 KR2       0.0010
     20 NAM        -2.7116    7.3542   -1.7425 N.4         1 KR2       0.2238
     21 CAK        -4.5326    5.6286   -1.8401 C.3         1 KR2       0.0243
     22 CAG        -4.4411    4.1386   -1.9166 C.ar        1 KR2      -0.0094
     23 CAH        -4.9970    3.4605   -3.0258 C.ar        1 KR2      -0.0298
     24 CAC        -4.9167    2.0578   -3.1363 C.ar        1 KR2       0.1544
     25 FAB        -5.3981    1.4636   -4.2018 F           1 KR2      -0.1895
     26 CAD        -4.3095    1.3066   -2.1140 C.ar        1 KR2       0.1560
     27 FAI        -4.2426    0.0010   -2.1979 F           1 KR2      -0.1911
     28 CAE        -3.7789    1.9583   -0.9915 C.ar        1 KR2      -0.0030
     29 CAF        -3.8278    3.3620   -0.8949 C.ar        1 KR2       0.1274
     30 FAJ        -3.3130    3.9227    0.1617 F           1 KR2      -0.1934
     31 H1         -5.4641    6.2938   -8.6517 H           1 KR2       0.0669
     32 H2         -6.4094    6.1623  -10.8750 H           1 KR2       0.0629
     33 H3         -5.0919    5.2795  -12.7107 H           1 KR2       0.0653
     34 H4         -2.8063    4.5556  -12.3332 H           1 KR2       0.0629
     35 H5         -1.8251    4.7252  -10.1311 H           1 KR2       0.0669
     36 H6         -4.0778    3.1009   -8.0115 H           1 KR2       0.0545
     37 H7         -3.4639    2.6256   -6.4522 H           1 KR2       0.0545
     38 H8         -1.8480    2.7740   -9.0392 H           1 KR2       0.0285
     39 H9         -2.3894    1.3251   -8.2215 H           1 KR2       0.0285
     40 H10         0.0183    1.7847   -7.8744 H           1 KR2       0.0267
     41 H11        -0.8667    1.6834   -6.3627 H           1 KR2       0.0267
     42 H12        -0.1466    4.3488   -7.7102 H           1 KR2       0.0285
     43 H13         0.9010    3.5463   -6.5594 H           1 KR2       0.0285
     44 H14        -0.3218    5.2398   -5.3976 H           1 KR2       0.0546
     45 H15        -0.8367    3.6658   -4.8150 H           1 KR2       0.0546
     46 H16        -1.6485    6.3939   -3.8127 H           1 KR2       0.0561
     47 H17        -2.1253    4.8607   -3.0883 H           1 KR2       0.0561
     48 H18        -4.0488    7.1975   -3.2641 H           1 KR2       0.0898
     49 H19        -3.3551    7.9477   -1.2182 H           1 KR2       0.2000
     50 H20        -2.0819    7.9471   -2.2885 H           1 KR2       0.2000
     51 H21        -2.1596    6.8016   -1.0858 H           1 KR2       0.2000
     52 H22        -5.5369    5.9231   -2.1664 H           1 KR2       0.0467
     53 H23        -4.5049    5.9248   -0.7898 H           1 KR2       0.0467
     54 H24        -5.4834    3.9877   -3.7544 H           1 KR2       0.0522
     55 H25        -3.3567    1.4064   -0.2428 H           1 KR2       0.0562
@<TRIPOS>BOND
     1     1     2  ar
     2     1     6  ar
     3     2     3  ar
     4     3     4  ar
     5     4     5  ar
     6     5     6  ar
     7     6     7   1
     8     7     8   2
     9     7     9  am
    10     9    10   1
    11     9    15   1
    12    10    11   1
    13    11    12   1
    14    12    13   1
    15    13    14   1
    16    14    15   1
    17    15    16  am
    18    16    17   2
    19    16    18   1
    20    18    19   1
    21    19    20   1
    22    19    21   1
    23    21    22   1
    24    22    23  ar
    25    22    29  ar
    26    23    24  ar
    27    24    25   1
    28    24    26  ar
    29    26    27   1
    30    26    28  ar
    31    28    29  ar
    32    29    30   1
    33     1    31   1
    34     2    32   1
    35     3    33   1
    36     4    34   1
    37     5    35   1
    38    10    36   1
    39    10    37   1
    40    11    38   1
    41    11    39   1
    42    12    40   1
    43    12    41   1
    44    13    42   1
    45    13    43   1
    46    14    44   1
    47    14    45   1
    48    18    46   1
    49    18    47   1
    50    19    48   1
    51    20    49   1
    52    20    50   1
    53    20    51   1
    54    21    52   1
    55    21    53   1
    56    23    54   1
    57    28    55   1
@<TRIPOS>SUBSTRUCTURE
     1  KR2      1

