@<TRIPOS>MOLECULE
2ole_ligand_011
    55    57
SMALL
GAST_HUCK
****
This file was generated by PARSER (from files_GN.cpp)

@<TRIPOS>ATOM
      1 CAY        -5.0635    3.0682   -5.4356 C.ar        1 KR2      -0.0419
      2 CBC        -6.2881    2.7973   -4.7954 C.ar        1 KR2      -0.0562
      3 CBB        -7.4960    3.2229   -5.3764 C.ar        1 KR2      -0.0575
      4 CBA        -7.4808    3.9208   -6.5973 C.ar        1 KR2      -0.0562
      5 CAZ        -6.2581    4.2085   -7.2298 C.ar        1 KR2      -0.0419
      6 CAX        -5.0372    3.7863   -6.6544 C.ar        1 KR2       0.0519
      7 CAW        -3.8333    4.0809   -7.2793 C.2         1 KR2       0.2286
      8 OAA        -3.3879    3.1927   -7.9963 O.2         1 KR2      -0.3825
      9 NAR        -3.2036    5.2667   -7.1684 N.am        1 KR2      -0.1656
     10 CAV        -2.0128    5.5584   -7.9517 C.3         1 KR2       0.0587
     11 CDD        -1.4481    7.0065   -7.8847 C.3         1 KR2      -0.0303
     12 CNN        -2.4662    8.0882   -8.3381 C.3         1 KR2      -0.0492
     13 CAT        -3.5037    8.4633   -7.2497 C.3         1 KR2      -0.0302
     14 CAS        -4.4000    7.2781   -6.8116 C.3         1 KR2       0.0592
     15 NAQ        -3.6270    6.1717   -6.2785 N.am        1 KR2      -0.1666
     16 CAO        -3.2544    6.0532   -4.9873 C.2         1 KR2       0.2052
     17 OAP        -2.4880    5.1446   -4.6856 O.2         1 KR2      -0.3947
     18 CAN        -3.6787    6.9542   -3.9153 C.3         1 KR2       0.0838
     19 CAL        -3.3489    6.5793   -2.4373 C.3         1 KR2       0.0010
     20 NAM        -1.8959    6.6265   -2.1989 N.4         1 KR2       0.2238
     21 CAK        -3.9669    5.2182   -1.9855 C.3         1 KR2       0.0243
     22 CAG        -4.0888    5.0913   -0.5050 C.ar        1 KR2      -0.0094
     23 CAH        -2.9482    4.7941    0.2814 C.ar        1 KR2      -0.0298
     24 CAC        -3.0364    4.7093    1.6840 C.ar        1 KR2       0.1544
     25 FAB        -1.9587    4.4534    2.3744 F           1 KR2      -0.1895
     26 CAD        -4.2789    4.8919    2.3242 C.ar        1 KR2       0.1560
     27 FAI        -4.3880    4.7870    3.6232 F           1 KR2      -0.1911
     28 CAE        -5.4242    5.1631    1.5537 C.ar        1 KR2      -0.0030
     29 CAF        -5.3316    5.2825    0.1534 C.ar        1 KR2       0.1274
     30 FAJ        -6.4219    5.5789   -0.5063 F           1 KR2      -0.1934
     31 H1         -4.1942    2.7389   -5.0051 H           1 KR2       0.0669
     32 H2         -6.3035    2.2823   -3.9122 H           1 KR2       0.0629
     33 H3         -8.3869    3.0070   -4.9231 H           1 KR2       0.0653
     34 H4         -8.3605    4.2121   -7.0289 H           1 KR2       0.0629
     35 H5         -6.2672    4.7065   -8.1232 H           1 KR2       0.0669
     36 H6         -2.2224    5.3484   -9.0048 H           1 KR2       0.0545
     37 H7         -1.2172    4.8763   -7.6366 H           1 KR2       0.0545
     38 H8         -0.5715    7.0651   -8.5354 H           1 KR2       0.0285
     39 H9         -1.1087    7.2193   -6.8681 H           1 KR2       0.0285
     40 H10        -2.9869    7.7534   -9.2395 H           1 KR2       0.0267
     41 H11        -1.9152    8.9939   -8.6002 H           1 KR2       0.0267
     42 H12        -4.1442    9.2584   -7.6414 H           1 KR2       0.0285
     43 H13        -2.9813    8.8680   -6.3800 H           1 KR2       0.0285
     44 H14        -4.9813    6.9447   -7.6767 H           1 KR2       0.0546
     45 H15        -5.1342    7.6450   -6.0919 H           1 KR2       0.0546
     46 H16        -4.7661    7.0596   -3.9667 H           1 KR2       0.0561
     47 H17        -3.2397    7.9352   -4.1108 H           1 KR2       0.0561
     48 H18        -3.7808    7.3654   -1.8135 H           1 KR2       0.0898
     49 H19        -1.7190    6.5519   -1.1947 H           1 KR2       0.2000
     50 H20        -1.5168    7.5189   -2.5322 H           1 KR2       0.2000
     51 H21        -1.4335    5.8518   -2.6813 H           1 KR2       0.2000
     52 H22        -3.3635    4.3867   -2.3578 H           1 KR2       0.0467
     53 H23        -4.9533    5.1049   -2.4437 H           1 KR2       0.0467
     54 H24        -2.0418    4.6286   -0.1664 H           1 KR2       0.0522
     55 H25        -6.3291    5.2904    2.0147 H           1 KR2       0.0562
@<TRIPOS>BOND
     1     1     2  ar
     2     1     6  ar
     3     2     3  ar
     4     3     4  ar
     5     4     5  ar
     6     5     6  ar
     7     6     7   1
     8     7     8   2
     9     7     9  am
    10     9    10   1
    11     9    15   1
    12    10    11   1
    13    11    12   1
    14    12    13   1
    15    13    14   1
    16    14    15   1
    17    15    16  am
    18    16    17   2
    19    16    18   1
    20    18    19   1
    21    19    20   1
    22    19    21   1
    23    21    22   1
    24    22    23  ar
    25    22    29  ar
    26    23    24  ar
    27    24    25   1
    28    24    26  ar
    29    26    27   1
    30    26    28  ar
    31    28    29  ar
    32    29    30   1
    33     1    31   1
    34     2    32   1
    35     3    33   1
    36     4    34   1
    37     5    35   1
    38    10    36   1
    39    10    37   1
    40    11    38   1
    41    11    39   1
    42    12    40   1
    43    12    41   1
    44    13    42   1
    45    13    43   1
    46    14    44   1
    47    14    45   1
    48    18    46   1
    49    18    47   1
    50    19    48   1
    51    20    49   1
    52    20    50   1
    53    20    51   1
    54    21    52   1
    55    21    53   1
    56    23    54   1
    57    28    55   1
@<TRIPOS>SUBSTRUCTURE
     1  KR2      1

