@<TRIPOS>MOLECULE
2ole_ligand_062
    55    57
SMALL
GAST_HUCK
****
This file was generated by PARSER (from files_GN.cpp)

@<TRIPOS>ATOM
      1 CAY        -5.9037    3.3666  -10.0552 C.ar        1 KR2      -0.0419
      2 CBC        -6.8374    3.2901  -11.1045 C.ar        1 KR2      -0.0562
      3 CBB        -8.1871    3.6113  -10.8731 C.ar        1 KR2      -0.0575
      4 CBA        -8.6050    4.0155   -9.5915 C.ar        1 KR2      -0.0562
      5 CAZ        -7.6700    4.1084   -8.5433 C.ar        1 KR2      -0.0419
      6 CAX        -6.3110    3.7943   -8.7718 C.ar        1 KR2       0.0519
      7 CAW        -5.3884    3.9112   -7.7477 C.2         1 KR2       0.2286
      8 OAA        -5.1786    2.8759   -7.1285 O.2         1 KR2      -0.3825
      9 NAR        -4.7655    5.0568   -7.4084 N.am        1 KR2      -0.1656
     10 CAV        -4.8918    6.3071   -8.1318 C.3         1 KR2       0.0587
     11 CDD        -3.8940    6.3859   -9.3150 C.3         1 KR2      -0.0303
     12 CNN        -2.4029    6.3344   -8.8849 C.3         1 KR2      -0.0492
     13 CAT        -2.0078    5.0569   -8.0963 C.3         1 KR2      -0.0302
     14 CAS        -2.5068    5.0291   -6.6231 C.3         1 KR2       0.0592
     15 NAQ        -3.9361    5.0624   -6.3632 N.am        1 KR2      -0.1666
     16 CAO        -4.4553    5.1420   -5.1192 C.2         1 KR2       0.2052
     17 OAP        -5.6640    5.3274   -4.9858 O.2         1 KR2      -0.3947
     18 CAN        -3.7188    4.9915   -3.8641 C.3         1 KR2       0.0838
     19 CAL        -3.4269    6.3371   -3.1122 C.3         1 KR2       0.0010
     20 NAM        -2.0012    6.7190   -3.1875 N.4         1 KR2       0.2238
     21 CAK        -3.9102    6.3826   -1.6248 C.3         1 KR2       0.0243
     22 CAG        -3.2751    5.5454   -0.5555 C.ar        1 KR2      -0.0094
     23 CAH        -2.3827    4.4775   -0.8309 C.ar        1 KR2      -0.0298
     24 CAC        -1.7674    3.7486    0.2003 C.ar        1 KR2       0.1544
     25 FAB        -0.9765    2.7558   -0.1104 F           1 KR2      -0.1895
     26 CAD        -2.0008    4.0981    1.5419 C.ar        1 KR2       0.1560
     27 FAI        -1.3582    3.4870    2.5026 F           1 KR2      -0.1911
     28 CAE        -2.9099    5.1263    1.8454 C.ar        1 KR2      -0.0030
     29 CAF        -3.5555    5.8332    0.8105 C.ar        1 KR2       0.1274
     30 FAJ        -4.3726    6.7961    1.1559 F           1 KR2      -0.1934
     31 H1         -4.9257    3.1266  -10.2401 H           1 KR2       0.0669
     32 H2         -6.5323    3.0013  -12.0377 H           1 KR2       0.0629
     33 H3         -8.8640    3.5467  -11.6359 H           1 KR2       0.0653
     34 H4         -9.5861    4.2472   -9.4238 H           1 KR2       0.0629
     35 H5         -7.9891    4.4067   -7.6158 H           1 KR2       0.0669
     36 H6         -4.7057    7.1566   -7.4648 H           1 KR2       0.0545
     37 H7         -5.9072    6.4361   -8.5128 H           1 KR2       0.0545
     38 H8         -4.0678    7.3240   -9.8492 H           1 KR2       0.0285
     39 H9         -4.0921    5.5697  -10.0143 H           1 KR2       0.0285
     40 H10        -2.1627    7.2197   -8.2877 H           1 KR2       0.0267
     41 H11        -1.7955    6.3787   -9.7939 H           1 KR2       0.0267
     42 H12        -0.9155    4.9962   -8.0696 H           1 KR2       0.0285
     43 H13        -2.3670    4.1683   -8.6266 H           1 KR2       0.0285
     44 H14        -2.0452    5.8807   -6.1135 H           1 KR2       0.0546
     45 H15        -2.0973    4.1156   -6.1871 H           1 KR2       0.0546
     46 H16        -2.7801    4.4644   -4.0407 H           1 KR2       0.0561
     47 H17        -4.3026    4.3197   -3.2228 H           1 KR2       0.0561
     48 H18        -3.9621    7.1459   -3.6200 H           1 KR2       0.0898
     49 H19        -1.8279    7.5667   -2.6368 H           1 KR2       0.2000
     50 H20        -1.7473    6.9051   -4.1610 H           1 KR2       0.2000
     51 H21        -1.4110    5.9649   -2.8308 H           1 KR2       0.2000
     52 H22        -4.9821    6.1663   -1.6154 H           1 KR2       0.0467
     53 H23        -3.7927    7.4274   -1.3201 H           1 KR2       0.0467
     54 H24        -2.1586    4.2122   -1.7873 H           1 KR2       0.0522
     55 H25        -3.0871    5.3822    2.8221 H           1 KR2       0.0562
@<TRIPOS>BOND
     1     1     2  ar
     2     1     6  ar
     3     2     3  ar
     4     3     4  ar
     5     4     5  ar
     6     5     6  ar
     7     6     7   1
     8     7     8   2
     9     7     9  am
    10     9    10   1
    11     9    15   1
    12    10    11   1
    13    11    12   1
    14    12    13   1
    15    13    14   1
    16    14    15   1
    17    15    16  am
    18    16    17   2
    19    16    18   1
    20    18    19   1
    21    19    20   1
    22    19    21   1
    23    21    22   1
    24    22    23  ar
    25    22    29  ar
    26    23    24  ar
    27    24    25   1
    28    24    26  ar
    29    26    27   1
    30    26    28  ar
    31    28    29  ar
    32    29    30   1
    33     1    31   1
    34     2    32   1
    35     3    33   1
    36     4    34   1
    37     5    35   1
    38    10    36   1
    39    10    37   1
    40    11    38   1
    41    11    39   1
    42    12    40   1
    43    12    41   1
    44    13    42   1
    45    13    43   1
    46    14    44   1
    47    14    45   1
    48    18    46   1
    49    18    47   1
    50    19    48   1
    51    20    49   1
    52    20    50   1
    53    20    51   1
    54    21    52   1
    55    21    53   1
    56    23    54   1
    57    28    55   1
@<TRIPOS>SUBSTRUCTURE
     1  KR2      1

