@<TRIPOS>MOLECULE
2ole_ligand_049
    55    57
SMALL
GAST_HUCK
****
This file was generated by PARSER (from files_GN.cpp)

@<TRIPOS>ATOM
      1 CAY        -2.4033    2.4284   -7.2016 C.ar        1 KR2      -0.0419
      2 CBC        -1.8771    1.2102   -6.7301 C.ar        1 KR2      -0.0562
      3 CBB        -2.7370    0.1688   -6.3508 C.ar        1 KR2      -0.0575
      4 CBA        -4.1300    0.3436   -6.4442 C.ar        1 KR2      -0.0562
      5 CAZ        -4.6554    1.5583   -6.9170 C.ar        1 KR2      -0.0419
      6 CAX        -3.8006    2.6297   -7.2885 C.ar        1 KR2       0.0519
      7 CAW        -4.3434    3.8447   -7.7120 C.2         1 KR2       0.2286
      8 OAA        -5.2170    3.7435   -8.5697 O.2         1 KR2      -0.3825
      9 NAR        -4.0366    5.0570   -7.2032 N.am        1 KR2      -0.1656
     10 CAV        -4.7521    6.2543   -7.6181 C.3         1 KR2       0.0587
     11 CDD        -4.1134    6.8601   -8.8917 C.3         1 KR2      -0.0303
     12 CNN        -2.6898    7.4195   -8.6412 C.3         1 KR2      -0.0492
     13 CAT        -1.6782    6.3740   -8.1061 C.3         1 KR2      -0.0302
     14 CAS        -1.8815    5.9395   -6.6265 C.3         1 KR2       0.0592
     15 NAQ        -3.1006    5.2292   -6.2619 N.am        1 KR2      -0.1666
     16 CAO        -3.3405    4.8053   -4.9978 C.2         1 KR2       0.2052
     17 OAP        -4.4205    4.2847   -4.7431 O.2         1 KR2      -0.3947
     18 CAN        -2.4025    4.8205   -3.8702 C.3         1 KR2       0.0838
     19 CAL        -2.8672    5.6961   -2.6447 C.3         1 KR2       0.0010
     20 NAM        -1.8471    6.7310   -2.3560 N.4         1 KR2       0.2238
     21 CAK        -3.1338    4.9430   -1.2904 C.3         1 KR2       0.0243
     22 CAG        -3.5669    3.5157   -1.3747 C.ar        1 KR2      -0.0094
     23 CAH        -4.7285    3.1781   -2.1054 C.ar        1 KR2      -0.0298
     24 CAC        -5.1197    1.8366   -2.2691 C.ar        1 KR2       0.1544
     25 FAB        -6.1508    1.5439   -3.0157 F           1 KR2      -0.1895
     26 CAD        -4.3839    0.8098   -1.6457 C.ar        1 KR2       0.1560
     27 FAI        -4.7386   -0.4422   -1.7766 F           1 KR2      -0.1911
     28 CAE        -3.2447    1.1335   -0.8833 C.ar        1 KR2      -0.0030
     29 CAF        -2.8355    2.4750   -0.7499 C.ar        1 KR2       0.1274
     30 FAJ        -1.7553    2.7087   -0.0546 F           1 KR2      -0.1934
     31 H1         -1.7522    3.1585   -7.4960 H           1 KR2       0.0669
     32 H2         -0.8625    1.0856   -6.6602 H           1 KR2       0.0629
     33 H3         -2.3549   -0.7143   -6.0039 H           1 KR2       0.0653
     34 H4         -4.7607   -0.4101   -6.1578 H           1 KR2       0.0629
     35 H5         -5.6730    1.6627   -6.9654 H           1 KR2       0.0669
     36 H6         -4.7446    7.0131   -6.8263 H           1 KR2       0.0545
     37 H7         -5.8115    6.0426   -7.8137 H           1 KR2       0.0545
     38 H8         -4.7444    7.6765   -9.2466 H           1 KR2       0.0285
     39 H9         -4.0773    6.1041   -9.6843 H           1 KR2       0.0285
     40 H10        -2.7487    8.2603   -7.9444 H           1 KR2       0.0267
     41 H11        -2.3147    7.8091   -9.5950 H           1 KR2       0.0267
     42 H12        -0.6825    6.8194   -8.1883 H           1 KR2       0.0285
     43 H13        -1.6961    5.4904   -8.7510 H           1 KR2       0.0285
     44 H14        -1.7883    6.8329   -6.0032 H           1 KR2       0.0546
     45 H15        -1.0341    5.2878   -6.4030 H           1 KR2       0.0546
     46 H16        -1.4184    5.1601   -4.1841 H           1 KR2       0.0561
     47 H17        -2.2474    3.7807   -3.5578 H           1 KR2       0.0561
     48 H18        -3.7844    6.2358   -2.8957 H           1 KR2       0.0898
     49 H19        -2.0046    7.1400   -1.4277 H           1 KR2       0.2000
     50 H20        -1.8480    7.4642   -3.0686 H           1 KR2       0.2000
     51 H21        -0.9281    6.2731   -2.3477 H           1 KR2       0.2000
     52 H22        -3.9129    5.4836   -0.7480 H           1 KR2       0.0467
     53 H23        -2.2309    5.0181   -0.6693 H           1 KR2       0.0467
     54 H24        -5.2784    3.9147   -2.5554 H           1 KR2       0.0522
     55 H25        -2.7002    0.3861   -0.4470 H           1 KR2       0.0562
@<TRIPOS>BOND
     1     1     2  ar
     2     1     6  ar
     3     2     3  ar
     4     3     4  ar
     5     4     5  ar
     6     5     6  ar
     7     6     7   1
     8     7     8   2
     9     7     9  am
    10     9    10   1
    11     9    15   1
    12    10    11   1
    13    11    12   1
    14    12    13   1
    15    13    14   1
    16    14    15   1
    17    15    16  am
    18    16    17   2
    19    16    18   1
    20    18    19   1
    21    19    20   1
    22    19    21   1
    23    21    22   1
    24    22    23  ar
    25    22    29  ar
    26    23    24  ar
    27    24    25   1
    28    24    26  ar
    29    26    27   1
    30    26    28  ar
    31    28    29  ar
    32    29    30   1
    33     1    31   1
    34     2    32   1
    35     3    33   1
    36     4    34   1
    37     5    35   1
    38    10    36   1
    39    10    37   1
    40    11    38   1
    41    11    39   1
    42    12    40   1
    43    12    41   1
    44    13    42   1
    45    13    43   1
    46    14    44   1
    47    14    45   1
    48    18    46   1
    49    18    47   1
    50    19    48   1
    51    20    49   1
    52    20    50   1
    53    20    51   1
    54    21    52   1
    55    21    53   1
    56    23    54   1
    57    28    55   1
@<TRIPOS>SUBSTRUCTURE
     1  KR2      1

