@<TRIPOS>MOLECULE
2ole_ligand_026
    55    57
SMALL
GAST_HUCK
****
This file was generated by PARSER (from files_GN.cpp)

@<TRIPOS>ATOM
      1 CAY        -6.4177    4.6653   -9.4590 C.ar        1 KR2      -0.0419
      2 CBC        -6.7617    4.8721  -10.8072 C.ar        1 KR2      -0.0562
      3 CBB        -6.1472    5.9033  -11.5430 C.ar        1 KR2      -0.0575
      4 CBA        -5.1985    6.7358  -10.9258 C.ar        1 KR2      -0.0562
      5 CAZ        -4.8528    6.5318   -9.5764 C.ar        1 KR2      -0.0419
      6 CAX        -5.4463    5.4829   -8.8348 C.ar        1 KR2       0.0519
      7 CAW        -5.0546    5.2398   -7.5258 C.2         1 KR2       0.2286
      8 OAA        -5.8798    5.5437   -6.6708 O.2         1 KR2      -0.3825
      9 NAR        -3.8615    4.7219   -7.1704 N.am        1 KR2      -0.1656
     10 CAV        -2.9280    4.1958   -8.1557 C.3         1 KR2       0.0587
     11 CDD        -1.6035    3.5530   -7.6543 C.3         1 KR2      -0.0303
     12 CNN        -1.7983    2.2762   -6.7911 C.3         1 KR2      -0.0492
     13 CAT        -2.2791    2.5562   -5.3463 C.3         1 KR2      -0.0302
     14 CAS        -3.6146    3.3361   -5.2731 C.3         1 KR2       0.0592
     15 NAQ        -3.5286    4.6528   -5.8761 N.am        1 KR2      -0.1666
     16 CAO        -3.1015    5.7710   -5.2496 C.2         1 KR2       0.2052
     17 OAP        -3.1451    6.8407   -5.8527 O.2         1 KR2      -0.3947
     18 CAN        -2.5229    5.8795   -3.9075 C.3         1 KR2       0.0838
     19 CAL        -3.4590    6.5149   -2.8206 C.3         1 KR2       0.0010
     20 NAM        -2.7098    7.4740   -1.9839 N.4         1 KR2       0.2238
     21 CAK        -4.2593    5.5222   -1.9091 C.3         1 KR2       0.0243
     22 CAG        -3.4935    4.9339   -0.7583 C.ar        1 KR2      -0.0094
     23 CAH        -3.6549    5.4777    0.5395 C.ar        1 KR2      -0.0298
     24 CAC        -2.8975    5.0045    1.6304 C.ar        1 KR2       0.1544
     25 FAB        -3.0814    5.5243    2.8124 F           1 KR2      -0.1895
     26 CAD        -1.9332    4.0042    1.4313 C.ar        1 KR2       0.1560
     27 FAI        -1.1741    3.5807    2.4056 F           1 KR2      -0.1911
     28 CAE        -1.7792    3.4268    0.1595 C.ar        1 KR2      -0.0030
     29 CAF        -2.5840    3.8553   -0.9123 C.ar        1 KR2       0.1274
     30 FAJ        -2.4918    3.1603   -2.0101 F           1 KR2      -0.1934
     31 H1         -6.8616    3.8997   -8.9438 H           1 KR2       0.0669
     32 H2         -7.4510    4.2668  -11.2581 H           1 KR2       0.0629
     33 H3         -6.3917    6.0459  -12.5254 H           1 KR2       0.0653
     34 H4         -4.7571    7.4895  -11.4579 H           1 KR2       0.0629
     35 H5         -4.1614    7.1502   -9.1427 H           1 KR2       0.0669
     36 H6         -2.6376    5.0096   -8.8242 H           1 KR2       0.0545
     37 H7         -3.4478    3.4438   -8.7574 H           1 KR2       0.0545
     38 H8         -1.0271    4.2960   -7.0962 H           1 KR2       0.0285
     39 H9         -1.0125    3.2789   -8.5330 H           1 KR2       0.0285
     40 H10        -0.8379    1.7562   -6.7244 H           1 KR2       0.0267
     41 H11        -2.5010    1.5998   -7.2859 H           1 KR2       0.0267
     42 H12        -1.4970    3.1059   -4.8221 H           1 KR2       0.0285
     43 H13        -2.4061    1.6004   -4.8307 H           1 KR2       0.0285
     44 H14        -3.9420    3.4024   -4.2372 H           1 KR2       0.0546
     45 H15        -4.3825    2.7432   -5.7795 H           1 KR2       0.0546
     46 H16        -1.6040    6.4698   -3.9962 H           1 KR2       0.0561
     47 H17        -2.1712    4.9171   -3.5803 H           1 KR2       0.0561
     48 H18        -4.2001    7.1241   -3.3475 H           1 KR2       0.0898
     49 H19        -3.3609    8.0081   -1.4081 H           1 KR2       0.2000
     50 H20        -2.1831    8.1156   -2.5761 H           1 KR2       0.2000
     51 H21        -2.0578    6.9785   -1.3716 H           1 KR2       0.2000
     52 H22        -4.6942    4.7178   -2.5032 H           1 KR2       0.0467
     53 H23        -5.1159    6.0830   -1.5183 H           1 KR2       0.0467
     54 H24        -4.3186    6.2373    0.7009 H           1 KR2       0.0522
     55 H25        -1.0969    2.6782    0.0176 H           1 KR2       0.0562
@<TRIPOS>BOND
     1     1     2  ar
     2     1     6  ar
     3     2     3  ar
     4     3     4  ar
     5     4     5  ar
     6     5     6  ar
     7     6     7   1
     8     7     8   2
     9     7     9  am
    10     9    10   1
    11     9    15   1
    12    10    11   1
    13    11    12   1
    14    12    13   1
    15    13    14   1
    16    14    15   1
    17    15    16  am
    18    16    17   2
    19    16    18   1
    20    18    19   1
    21    19    20   1
    22    19    21   1
    23    21    22   1
    24    22    23  ar
    25    22    29  ar
    26    23    24  ar
    27    24    25   1
    28    24    26  ar
    29    26    27   1
    30    26    28  ar
    31    28    29  ar
    32    29    30   1
    33     1    31   1
    34     2    32   1
    35     3    33   1
    36     4    34   1
    37     5    35   1
    38    10    36   1
    39    10    37   1
    40    11    38   1
    41    11    39   1
    42    12    40   1
    43    12    41   1
    44    13    42   1
    45    13    43   1
    46    14    44   1
    47    14    45   1
    48    18    46   1
    49    18    47   1
    50    19    48   1
    51    20    49   1
    52    20    50   1
    53    20    51   1
    54    21    52   1
    55    21    53   1
    56    23    54   1
    57    28    55   1
@<TRIPOS>SUBSTRUCTURE
     1  KR2      1

