@<TRIPOS>MOLECULE
2ole_ligand_080
    55    57
SMALL
GAST_HUCK
****
This file was generated by PARSER (from files_GN.cpp)

@<TRIPOS>ATOM
      1 CAY        -6.0266    3.4024   -6.2312 C.ar        1 KR2      -0.0419
      2 CBC        -6.3135    4.6409   -6.8391 C.ar        1 KR2      -0.0562
      3 CBB        -5.6460    5.0225   -8.0149 C.ar        1 KR2      -0.0575
      4 CBA        -4.6906    4.1629   -8.5830 C.ar        1 KR2      -0.0562
      5 CAZ        -4.3925    2.9333   -7.9623 C.ar        1 KR2      -0.0419
      6 CAX        -5.0370    2.5388   -6.7615 C.ar        1 KR2       0.0519
      7 CAW        -4.7213    1.3197   -6.1452 C.2         1 KR2       0.2286
      8 OAA        -4.7078    0.3525   -6.9010 O.2         1 KR2      -0.3825
      9 NAR        -4.4148    1.1354   -4.8403 N.am        1 KR2      -0.1656
     10 CAV        -4.1293   -0.2020   -4.3214 C.3         1 KR2       0.0587
     11 CDD        -3.7304   -0.3599   -2.8235 C.3         1 KR2      -0.0303
     12 CNN        -4.8165    0.0773   -1.8020 C.3         1 KR2      -0.0492
     13 CAT        -4.9988    1.6114   -1.6673 C.3         1 KR2      -0.0302
     14 CAS        -5.3667    2.2831   -3.0136 C.3         1 KR2       0.0592
     15 NAQ        -4.3020    2.1690   -3.9936 N.am        1 KR2      -0.1666
     16 CAO        -3.1797    2.9159   -3.9865 C.2         1 KR2       0.2052
     17 OAP        -2.2625    2.5947   -4.7429 O.2         1 KR2      -0.3947
     18 CAN        -2.8780    4.0779   -3.1365 C.3         1 KR2       0.0838
     19 CAL        -2.4252    5.3601   -3.9108 C.3         1 KR2       0.0010
     20 NAM        -2.0386    6.4167   -2.9649 N.4         1 KR2       0.2238
     21 CAK        -3.5141    5.8932   -4.8908 C.3         1 KR2       0.0243
     22 CAG        -3.1138    6.9006   -5.9213 C.ar        1 KR2      -0.0094
     23 CAH        -1.9916    6.6647   -6.7554 C.ar        1 KR2      -0.0298
     24 CAC        -1.6788    7.5308   -7.8210 C.ar        1 KR2       0.1544
     25 FAB        -0.6099    7.3125   -8.5373 F           1 KR2      -0.1895
     26 CAD        -2.5281    8.6115   -8.1167 C.ar        1 KR2       0.1560
     27 FAI        -2.2823    9.3915   -9.1332 F           1 KR2      -0.1911
     28 CAE        -3.6607    8.8462   -7.3196 C.ar        1 KR2      -0.0030
     29 CAF        -3.9499    8.0079   -6.2266 C.ar        1 KR2       0.1274
     30 FAJ        -5.0435    8.2486   -5.5538 F           1 KR2      -0.1934
     31 H1         -6.5596    3.1425   -5.4036 H           1 KR2       0.0669
     32 H2         -6.9991    5.2727   -6.4180 H           1 KR2       0.0629
     33 H3         -5.8468    5.9270   -8.4512 H           1 KR2       0.0653
     34 H4         -4.2027    4.4374   -9.4378 H           1 KR2       0.0629
     35 H5         -3.6789    2.3358   -8.3870 H           1 KR2       0.0669
     36 H6         -3.3011   -0.6220   -4.9022 H           1 KR2       0.0545
     37 H7         -5.0031   -0.8370   -4.4960 H           1 KR2       0.0545
     38 H8         -2.8099    0.1971   -2.6329 H           1 KR2       0.0285
     39 H9         -3.5091   -1.4168   -2.6453 H           1 KR2       0.0285
     40 H10        -4.5428   -0.3141   -0.8185 H           1 KR2       0.0267
     41 H11        -5.7721   -0.3772   -2.0774 H           1 KR2       0.0267
     42 H12        -4.0894    2.0590   -1.2594 H           1 KR2       0.0285
     43 H13        -5.8039    1.8020   -0.9526 H           1 KR2       0.0285
     44 H14        -5.6411    3.3268   -2.8618 H           1 KR2       0.0546
     45 H15        -6.2773    1.7949   -3.3797 H           1 KR2       0.0546
     46 H16        -2.0735    3.7823   -2.4565 H           1 KR2       0.0561
     47 H17        -3.7210    4.3544   -2.5039 H           1 KR2       0.0561
     48 H18        -1.5219    5.1020   -4.4654 H           1 KR2       0.0898
     49 H19        -1.7845    7.2586   -3.4782 H           1 KR2       0.2000
     50 H20        -1.2296    6.0859   -2.4433 H           1 KR2       0.2000
     51 H21        -2.8063    6.6253   -2.3261 H           1 KR2       0.2000
     52 H22        -4.3383    6.2664   -4.2785 H           1 KR2       0.0467
     53 H23        -3.8941    5.0536   -5.4616 H           1 KR2       0.0467
     54 H24        -1.4012    5.8432   -6.6133 H           1 KR2       0.0522
     55 H25        -4.2855    9.6203   -7.5459 H           1 KR2       0.0562
@<TRIPOS>BOND
     1     1     2  ar
     2     1     6  ar
     3     2     3  ar
     4     3     4  ar
     5     4     5  ar
     6     5     6  ar
     7     6     7   1
     8     7     8   2
     9     7     9  am
    10     9    10   1
    11     9    15   1
    12    10    11   1
    13    11    12   1
    14    12    13   1
    15    13    14   1
    16    14    15   1
    17    15    16  am
    18    16    17   2
    19    16    18   1
    20    18    19   1
    21    19    20   1
    22    19    21   1
    23    21    22   1
    24    22    23  ar
    25    22    29  ar
    26    23    24  ar
    27    24    25   1
    28    24    26  ar
    29    26    27   1
    30    26    28  ar
    31    28    29  ar
    32    29    30   1
    33     1    31   1
    34     2    32   1
    35     3    33   1
    36     4    34   1
    37     5    35   1
    38    10    36   1
    39    10    37   1
    40    11    38   1
    41    11    39   1
    42    12    40   1
    43    12    41   1
    44    13    42   1
    45    13    43   1
    46    14    44   1
    47    14    45   1
    48    18    46   1
    49    18    47   1
    50    19    48   1
    51    20    49   1
    52    20    50   1
    53    20    51   1
    54    21    52   1
    55    21    53   1
    56    23    54   1
    57    28    55   1
@<TRIPOS>SUBSTRUCTURE
     1  KR2      1

