@<TRIPOS>MOLECULE
2ole_ligand_045
    55    57
SMALL
GAST_HUCK
****
This file was generated by PARSER (from files_GN.cpp)

@<TRIPOS>ATOM
      1 CAY        -6.5947    5.1166   -5.0852 C.ar        1 KR2      -0.0419
      2 CBC        -7.3780    6.1975   -4.6254 C.ar        1 KR2      -0.0562
      3 CBB        -8.7631    6.0474   -4.4210 C.ar        1 KR2      -0.0575
      4 CBA        -9.3629    4.7932   -4.6719 C.ar        1 KR2      -0.0562
      5 CAZ        -8.5824    3.6988   -5.0986 C.ar        1 KR2      -0.0419
      6 CAX        -7.1814    3.8367   -5.3076 C.ar        1 KR2       0.0519
      7 CAW        -6.4147    2.7548   -5.7556 C.2         1 KR2       0.2286
      8 OAA        -6.9128    2.1390   -6.7007 O.2         1 KR2      -0.3825
      9 NAR        -5.3057    2.2628   -5.1695 N.am        1 KR2      -0.1656
     10 CAV        -4.7342    0.9838   -5.5931 C.3         1 KR2       0.0587
     11 CDD        -3.5768    0.3645   -4.7486 C.3         1 KR2      -0.0303
     12 CNN        -3.9696    0.0365   -3.2818 C.3         1 KR2      -0.0492
     13 CAT        -4.0687    1.2714   -2.3527 C.3         1 KR2      -0.0302
     14 CAS        -5.0914    2.3336   -2.8274 C.3         1 KR2       0.0592
     15 NAQ        -4.7365    2.8752   -4.1267 N.am        1 KR2      -0.1666
     16 CAO        -3.8245    3.8509   -4.3333 C.2         1 KR2       0.2052
     17 OAP        -3.5887    4.1878   -5.4957 O.2         1 KR2      -0.3947
     18 CAN        -3.2422    4.6701   -3.2589 C.3         1 KR2       0.0838
     19 CAL        -2.4775    5.9831   -3.6292 C.3         1 KR2       0.0010
     20 NAM        -1.9281    6.5711   -2.3880 N.4         1 KR2       0.2238
     21 CAK        -3.3469    7.0723   -4.3606 C.3         1 KR2       0.0243
     22 CAG        -3.0426    7.5530   -5.7477 C.ar        1 KR2      -0.0094
     23 CAH        -1.9107    7.1635   -6.5103 C.ar        1 KR2      -0.0298
     24 CAC        -1.6403    7.7333   -7.7705 C.ar        1 KR2       0.1544
     25 FAB        -0.5491    7.3937   -8.4141 F           1 KR2      -0.1895
     26 CAD        -2.5166    8.6903   -8.3120 C.ar        1 KR2       0.1560
     27 FAI        -2.2768    9.2311   -9.4765 F           1 KR2      -0.1911
     28 CAE        -3.6642    9.0659   -7.5934 C.ar        1 KR2      -0.0030
     29 CAF        -3.9222    8.5078   -6.3260 C.ar        1 KR2       0.1274
     30 FAJ        -4.9981    8.9098   -5.6968 F           1 KR2      -0.1934
     31 H1         -5.6076    5.2811   -5.2784 H           1 KR2       0.0669
     32 H2         -6.9433    7.1062   -4.4420 H           1 KR2       0.0629
     33 H3         -9.3326    6.8289   -4.0804 H           1 KR2       0.0653
     34 H4        -10.3674    4.6775   -4.5364 H           1 KR2       0.0629
     35 H5         -9.0453    2.7908   -5.2436 H           1 KR2       0.0669
     36 H6         -4.3673    1.0936   -6.6161 H           1 KR2       0.0545
     37 H7         -5.5332    0.2375   -5.6086 H           1 KR2       0.0545
     38 H8         -2.7075    1.0293   -4.7627 H           1 KR2       0.0285
     39 H9         -3.2738   -0.5679   -5.2318 H           1 KR2       0.0285
     40 H10        -3.2113   -0.6370   -2.8632 H           1 KR2       0.0267
     41 H11        -4.9219   -0.5077   -3.2684 H           1 KR2       0.0267
     42 H12        -3.0827    1.7238   -2.2624 H           1 KR2       0.0285
     43 H13        -4.3596    0.9330   -1.3557 H           1 KR2       0.0285
     44 H14        -5.1786    3.1124   -2.0725 H           1 KR2       0.0546
     45 H15        -6.0766    1.8560   -2.8654 H           1 KR2       0.0546
     46 H16        -2.5572    4.0358   -2.6935 H           1 KR2       0.0561
     47 H17        -4.0421    4.9724   -2.5804 H           1 KR2       0.0561
     48 H18        -1.6005    5.6920   -4.2006 H           1 KR2       0.0898
     49 H19        -1.5377    7.4963   -2.5902 H           1 KR2       0.2000
     50 H20        -1.1836    5.9702   -2.0397 H           1 KR2       0.2000
     51 H21        -2.6624    6.6598   -1.6819 H           1 KR2       0.2000
     52 H22        -3.3441    7.9804   -3.7451 H           1 KR2       0.0467
     53 H23        -4.3812    6.7164   -4.3609 H           1 KR2       0.0467
     54 H24        -1.2421    6.4774   -6.1630 H           1 KR2       0.0522
     55 H25        -4.2932    9.7781   -7.9801 H           1 KR2       0.0562
@<TRIPOS>BOND
     1     1     2  ar
     2     1     6  ar
     3     2     3  ar
     4     3     4  ar
     5     4     5  ar
     6     5     6  ar
     7     6     7   1
     8     7     8   2
     9     7     9  am
    10     9    10   1
    11     9    15   1
    12    10    11   1
    13    11    12   1
    14    12    13   1
    15    13    14   1
    16    14    15   1
    17    15    16  am
    18    16    17   2
    19    16    18   1
    20    18    19   1
    21    19    20   1
    22    19    21   1
    23    21    22   1
    24    22    23  ar
    25    22    29  ar
    26    23    24  ar
    27    24    25   1
    28    24    26  ar
    29    26    27   1
    30    26    28  ar
    31    28    29  ar
    32    29    30   1
    33     1    31   1
    34     2    32   1
    35     3    33   1
    36     4    34   1
    37     5    35   1
    38    10    36   1
    39    10    37   1
    40    11    38   1
    41    11    39   1
    42    12    40   1
    43    12    41   1
    44    13    42   1
    45    13    43   1
    46    14    44   1
    47    14    45   1
    48    18    46   1
    49    18    47   1
    50    19    48   1
    51    20    49   1
    52    20    50   1
    53    20    51   1
    54    21    52   1
    55    21    53   1
    56    23    54   1
    57    28    55   1
@<TRIPOS>SUBSTRUCTURE
     1  KR2      1

