@<TRIPOS>MOLECULE
2ole_ligand_010
    55    57
SMALL
GAST_HUCK
****
This file was generated by PARSER (from files_GN.cpp)

@<TRIPOS>ATOM
      1 CAY        -2.5334    6.0072   -9.8063 C.ar        1 KR2      -0.0419
      2 CBC        -2.1463    7.3235  -10.1239 C.ar        1 KR2      -0.0562
      3 CBB        -2.6841    8.4075   -9.4102 C.ar        1 KR2      -0.0575
      4 CBA        -3.6185    8.1778   -8.3852 C.ar        1 KR2      -0.0562
      5 CAZ        -3.9968    6.8617   -8.0568 C.ar        1 KR2      -0.0419
      6 CAX        -3.4392    5.7588   -8.7462 C.ar        1 KR2       0.0519
      7 CAW        -3.7875    4.4570   -8.4160 C.2         1 KR2       0.2286
      8 OAA        -4.4415    3.8676   -9.2717 O.2         1 KR2      -0.3825
      9 NAR        -3.3812    3.8214   -7.2983 N.am        1 KR2      -0.1656
     10 CAV        -3.6506    2.4161   -7.0749 C.3         1 KR2       0.0587
     11 CDD        -2.6598    1.5100   -7.8540 C.3         1 KR2      -0.0303
     12 CNN        -1.1711    1.7287   -7.4751 C.3         1 KR2      -0.0492
     13 CAT        -0.6565    3.1783   -7.6996 C.3         1 KR2      -0.0302
     14 CAS        -1.1218    4.1823   -6.6008 C.3         1 KR2       0.0592
     15 NAQ        -2.5500    4.4037   -6.4248 N.am        1 KR2      -0.1666
     16 CAO        -3.0613    5.1280   -5.4053 C.2         1 KR2       0.2052
     17 OAP        -4.2824    5.2159   -5.3082 O.2         1 KR2      -0.3947
     18 CAN        -2.2969    5.9875   -4.4950 C.3         1 KR2       0.0838
     19 CAL        -2.8350    6.1616   -3.0317 C.3         1 KR2       0.0010
     20 NAM        -1.7712    6.8176   -2.2479 N.4         1 KR2       0.2238
     21 CAK        -3.2663    4.8333   -2.3281 C.3         1 KR2       0.0243
     22 CAG        -3.3618    4.9311   -0.8328 C.ar        1 KR2      -0.0094
     23 CAH        -4.3092    5.8123   -0.2578 C.ar        1 KR2      -0.0298
     24 CAC        -4.3575    6.0162    1.1321 C.ar        1 KR2       0.1544
     25 FAB        -5.2159    6.8585    1.6369 F           1 KR2      -0.1895
     26 CAD        -3.4680    5.3190    1.9755 C.ar        1 KR2       0.1560
     27 FAI        -3.5038    5.5023    3.2686 F           1 KR2      -0.1911
     28 CAE        -2.5410    4.4184    1.4177 C.ar        1 KR2      -0.0030
     29 CAF        -2.4847    4.2228    0.0272 C.ar        1 KR2       0.1274
     30 FAJ        -1.5987    3.3834   -0.4399 F           1 KR2      -0.1934
     31 H1         -2.1390    5.2327  -10.3470 H           1 KR2       0.0669
     32 H2         -1.4745    7.4900  -10.8773 H           1 KR2       0.0629
     33 H3         -2.4039    9.3627   -9.6409 H           1 KR2       0.0653
     34 H4         -4.0263    8.9688   -7.8795 H           1 KR2       0.0629
     35 H5         -4.6916    6.7199   -7.3208 H           1 KR2       0.0669
     36 H6         -4.6759    2.1682   -7.3711 H           1 KR2       0.0545
     37 H7         -3.5784    2.1735   -6.0088 H           1 KR2       0.0545
     38 H8         -2.7833    1.6787   -8.9268 H           1 KR2       0.0285
     39 H9         -2.9166    0.4666   -7.6583 H           1 KR2       0.0285
     40 H10        -0.5686    1.0546   -8.0873 H           1 KR2       0.0267
     41 H11        -1.0166    1.4409   -6.4325 H           1 KR2       0.0267
     42 H12        -0.9605    3.5351   -8.6879 H           1 KR2       0.0285
     43 H13         0.4389    3.1577   -7.6938 H           1 KR2       0.0285
     44 H14        -0.6478    5.1461   -6.8145 H           1 KR2       0.0546
     45 H15        -0.7041    3.8054   -5.6619 H           1 KR2       0.0546
     46 H16        -2.2543    6.9779   -4.9652 H           1 KR2       0.0561
     47 H17        -1.2665    5.6318   -4.4167 H           1 KR2       0.0561
     48 H18        -3.6951    6.8400   -3.0587 H           1 KR2       0.0898
     49 H19        -2.0355    6.9061   -1.2614 H           1 KR2       0.2000
     50 H20        -1.5797    7.7418   -2.6244 H           1 KR2       0.2000
     51 H21        -0.9216    6.2510   -2.2991 H           1 KR2       0.2000
     52 H22        -2.5649    4.0497   -2.6291 H           1 KR2       0.0467
     53 H23        -4.2507    4.5374   -2.7058 H           1 KR2       0.0467
     54 H24        -4.9610    6.3340   -0.8484 H           1 KR2       0.0522
     55 H25        -1.9031    3.9027    2.0276 H           1 KR2       0.0562
@<TRIPOS>BOND
     1     1     2  ar
     2     1     6  ar
     3     2     3  ar
     4     3     4  ar
     5     4     5  ar
     6     5     6  ar
     7     6     7   1
     8     7     8   2
     9     7     9  am
    10     9    10   1
    11     9    15   1
    12    10    11   1
    13    11    12   1
    14    12    13   1
    15    13    14   1
    16    14    15   1
    17    15    16  am
    18    16    17   2
    19    16    18   1
    20    18    19   1
    21    19    20   1
    22    19    21   1
    23    21    22   1
    24    22    23  ar
    25    22    29  ar
    26    23    24  ar
    27    24    25   1
    28    24    26  ar
    29    26    27   1
    30    26    28  ar
    31    28    29  ar
    32    29    30   1
    33     1    31   1
    34     2    32   1
    35     3    33   1
    36     4    34   1
    37     5    35   1
    38    10    36   1
    39    10    37   1
    40    11    38   1
    41    11    39   1
    42    12    40   1
    43    12    41   1
    44    13    42   1
    45    13    43   1
    46    14    44   1
    47    14    45   1
    48    18    46   1
    49    18    47   1
    50    19    48   1
    51    20    49   1
    52    20    50   1
    53    20    51   1
    54    21    52   1
    55    21    53   1
    56    23    54   1
    57    28    55   1
@<TRIPOS>SUBSTRUCTURE
     1  KR2      1

