@<TRIPOS>MOLECULE
2ole_ligand_047
    55    57
SMALL
GAST_HUCK
****
This file was generated by PARSER (from files_GN.cpp)

@<TRIPOS>ATOM
      1 CAY        -1.8114    1.6472   -6.4270 C.ar        1 KR2      -0.0419
      2 CBC        -1.6327    0.3747   -7.0022 C.ar        1 KR2      -0.0562
      3 CBB        -0.8202    0.2236   -8.1397 C.ar        1 KR2      -0.0575
      4 CBA        -0.1812    1.3431   -8.7034 C.ar        1 KR2      -0.0562
      5 CAZ        -0.3478    2.6155   -8.1217 C.ar        1 KR2      -0.0419
      6 CAX        -1.1753    2.7780   -6.9887 C.ar        1 KR2       0.0519
      7 CAW        -1.4003    4.0301   -6.4504 C.2         1 KR2       0.2286
      8 OAA        -0.6694    4.3243   -5.5119 O.2         1 KR2      -0.3825
      9 NAR        -2.3958    4.8529   -6.8307 N.am        1 KR2      -0.1656
     10 CAV        -3.2787    4.6044   -7.9570 C.3         1 KR2       0.0587
     11 CDD        -2.7002    5.1820   -9.2708 C.3         1 KR2      -0.0303
     12 CNN        -2.4643    6.7142   -9.2476 C.3         1 KR2      -0.0492
     13 CAT        -1.5113    7.2067   -8.1237 C.3         1 KR2      -0.0302
     14 CAS        -2.1621    7.2334   -6.7084 C.3         1 KR2       0.0592
     15 NAQ        -2.6138    5.9767   -6.1416 N.am        1 KR2      -0.1666
     16 CAO        -3.2657    5.8965   -4.9561 C.2         1 KR2       0.2052
     17 OAP        -3.7028    4.8010   -4.6292 O.2         1 KR2      -0.3947
     18 CAN        -3.6396    7.0001   -4.0758 C.3         1 KR2       0.0838
     19 CAL        -3.4494    6.7829   -2.5364 C.3         1 KR2       0.0010
     20 NAM        -2.0205    6.6373   -2.2043 N.4         1 KR2       0.2238
     21 CAK        -4.4036    5.7309   -1.8599 C.3         1 KR2       0.0243
     22 CAG        -3.8738    4.3549   -1.6096 C.ar        1 KR2      -0.0094
     23 CAH        -2.8268    4.1655   -0.6726 C.ar        1 KR2      -0.0298
     24 CAC        -2.3258    2.8873   -0.3748 C.ar        1 KR2       0.1544
     25 FAB        -1.3257    2.7780    0.4571 F           1 KR2      -0.1895
     26 CAD        -2.9006    1.7539   -0.9743 C.ar        1 KR2       0.1560
     27 FAI        -2.4777    0.5518   -0.6851 F           1 KR2      -0.1911
     28 CAE        -3.9483    1.9098   -1.8986 C.ar        1 KR2      -0.0030
     29 CAF        -4.4382    3.1948   -2.2100 C.ar        1 KR2       0.1274
     30 FAJ        -5.4327    3.2672   -3.0515 F           1 KR2      -0.1934
     31 H1         -2.4167    1.7386   -5.6056 H           1 KR2       0.0669
     32 H2         -2.0951   -0.4415   -6.5930 H           1 KR2       0.0629
     33 H3         -0.6931   -0.7004   -8.5599 H           1 KR2       0.0653
     34 H4          0.3985    1.2357   -9.5380 H           1 KR2       0.0629
     35 H5          0.1281    3.4169   -8.5402 H           1 KR2       0.0669
     36 H6         -4.2590    5.0574   -7.7784 H           1 KR2       0.0545
     37 H7         -3.4650    3.5352   -8.0887 H           1 KR2       0.0545
     38 H8         -3.3914    4.9502  -10.0851 H           1 KR2       0.0285
     39 H9         -1.7586    4.6858   -9.5025 H           1 KR2       0.0285
     40 H10        -3.4265    7.2279   -9.1623 H           1 KR2       0.0267
     41 H11        -2.0300    6.9974  -10.2111 H           1 KR2       0.0267
     42 H12        -1.1938    8.2246   -8.3665 H           1 KR2       0.0285
     43 H13        -0.6130    6.5864   -8.0991 H           1 KR2       0.0285
     44 H14        -3.0062    7.9296   -6.7591 H           1 KR2       0.0546
     45 H15        -1.4187    7.6584   -6.0292 H           1 KR2       0.0546
     46 H16        -4.6926    7.2265   -4.2652 H           1 KR2       0.0561
     47 H17        -3.0863    7.9039   -4.3341 H           1 KR2       0.0561
     48 H18        -3.7126    7.7390   -2.0805 H           1 KR2       0.0898
     49 H19        -1.9190    6.6231   -1.1896 H           1 KR2       0.2000
     50 H20        -1.5086    7.4464   -2.5594 H           1 KR2       0.2000
     51 H21        -1.6271    5.7778   -2.5951 H           1 KR2       0.2000
     52 H22        -5.3213    5.6828   -2.4538 H           1 KR2       0.0467
     53 H23        -4.7099    6.1204   -0.8858 H           1 KR2       0.0467
     54 H24        -2.4250    4.9639   -0.1801 H           1 KR2       0.0522
     55 H25        -4.3569    1.0864   -2.3464 H           1 KR2       0.0562
@<TRIPOS>BOND
     1     1     2  ar
     2     1     6  ar
     3     2     3  ar
     4     3     4  ar
     5     4     5  ar
     6     5     6  ar
     7     6     7   1
     8     7     8   2
     9     7     9  am
    10     9    10   1
    11     9    15   1
    12    10    11   1
    13    11    12   1
    14    12    13   1
    15    13    14   1
    16    14    15   1
    17    15    16  am
    18    16    17   2
    19    16    18   1
    20    18    19   1
    21    19    20   1
    22    19    21   1
    23    21    22   1
    24    22    23  ar
    25    22    29  ar
    26    23    24  ar
    27    24    25   1
    28    24    26  ar
    29    26    27   1
    30    26    28  ar
    31    28    29  ar
    32    29    30   1
    33     1    31   1
    34     2    32   1
    35     3    33   1
    36     4    34   1
    37     5    35   1
    38    10    36   1
    39    10    37   1
    40    11    38   1
    41    11    39   1
    42    12    40   1
    43    12    41   1
    44    13    42   1
    45    13    43   1
    46    14    44   1
    47    14    45   1
    48    18    46   1
    49    18    47   1
    50    19    48   1
    51    20    49   1
    52    20    50   1
    53    20    51   1
    54    21    52   1
    55    21    53   1
    56    23    54   1
    57    28    55   1
@<TRIPOS>SUBSTRUCTURE
     1  KR2      1

