@<TRIPOS>MOLECULE
2ole_ligand_067
    55    57
SMALL
GAST_HUCK
****
This file was generated by PARSER (from files_GN.cpp)

@<TRIPOS>ATOM
      1 CAY        -6.8856    4.3123   -8.3229 C.ar        1 KR2      -0.0419
      2 CBC        -8.0213    4.0198   -9.1021 C.ar        1 KR2      -0.0562
      3 CBB        -7.8787    3.3545  -10.3331 C.ar        1 KR2      -0.0575
      4 CBA        -6.6023    2.9746  -10.7806 C.ar        1 KR2      -0.0562
      5 CAZ        -5.4653    3.2552   -9.9997 C.ar        1 KR2      -0.0419
      6 CAX        -5.5967    3.9348   -8.7659 C.ar        1 KR2       0.0519
      7 CAW        -4.4775    4.2435   -8.0079 C.2         1 KR2       0.2286
      8 OAA        -3.9492    3.2903   -7.4473 O.2         1 KR2      -0.3825
      9 NAR        -3.9397    5.4749   -7.9081 N.am        1 KR2      -0.1656
     10 CAV        -4.3753    6.5730   -8.7574 C.3         1 KR2       0.0587
     11 CDD        -3.5928    7.9126   -8.6708 C.3         1 KR2      -0.0303
     12 CNN        -2.0935    7.7984   -9.0576 C.3         1 KR2      -0.0492
     13 CAT        -1.1954    7.1457   -7.9766 C.3         1 KR2      -0.0302
     14 CAS        -1.6128    5.7036   -7.5903 C.3         1 KR2       0.0592
     15 NAQ        -2.9513    5.6834   -7.0334 N.am        1 KR2      -0.1666
     16 CAO        -3.2550    5.9823   -5.7546 C.2         1 KR2       0.2052
     17 OAP        -4.4241    6.2478   -5.4915 O.2         1 KR2      -0.3947
     18 CAN        -2.2874    6.0801   -4.6583 C.3         1 KR2       0.0838
     19 CAL        -2.8446    6.0824   -3.1885 C.3         1 KR2       0.0010
     20 NAM        -1.8197    6.6709   -2.3085 N.4         1 KR2       0.2238
     21 CAK        -3.2193    4.6822   -2.6021 C.3         1 KR2       0.0243
     22 CAG        -4.0901    3.8290   -3.4685 C.ar        1 KR2      -0.0094
     23 CAH        -3.6306    2.5647   -3.9097 C.ar        1 KR2      -0.0298
     24 CAC        -4.4183    1.7536   -4.7487 C.ar        1 KR2       0.1544
     25 FAB        -3.9559    0.5997   -5.1469 F           1 KR2      -0.1895
     26 CAD        -5.6716    2.2181   -5.1940 C.ar        1 KR2       0.1560
     27 FAI        -6.3914    1.5043   -6.0153 F           1 KR2      -0.1911
     28 CAE        -6.1539    3.4625   -4.7431 C.ar        1 KR2      -0.0030
     29 CAF        -5.3816    4.2502   -3.8657 C.ar        1 KR2       0.1274
     30 FAJ        -5.8834    5.3768   -3.4331 F           1 KR2      -0.1934
     31 H1         -7.0065    4.7982   -7.4289 H           1 KR2       0.0669
     32 H2         -8.9506    4.2907   -8.7747 H           1 KR2       0.0629
     33 H3         -8.7032    3.1479  -10.9012 H           1 KR2       0.0653
     34 H4         -6.4973    2.4934  -11.6761 H           1 KR2       0.0629
     35 H5         -4.5430    2.9797  -10.3481 H           1 KR2       0.0669
     36 H6         -5.4204    6.7929   -8.5271 H           1 KR2       0.0545
     37 H7         -4.3329    6.2492   -9.8032 H           1 KR2       0.0545
     38 H8         -3.6939    8.3343   -7.6669 H           1 KR2       0.0285
     39 H9         -4.0603    8.6148   -9.3644 H           1 KR2       0.0285
     40 H10        -1.7148    8.8069   -9.2381 H           1 KR2       0.0267
     41 H11        -1.9978    7.2441   -9.9939 H           1 KR2       0.0267
     42 H12        -1.2064    7.7747   -7.0847 H           1 KR2       0.0285
     43 H13        -0.1668    7.1294   -8.3515 H           1 KR2       0.0285
     44 H14        -0.8842    5.2765   -6.8994 H           1 KR2       0.0546
     45 H15        -1.5645    5.0804   -8.4860 H           1 KR2       0.0546
     46 H16        -1.7228    7.0029   -4.8213 H           1 KR2       0.0561
     47 H17        -1.5877    5.2466   -4.7397 H           1 KR2       0.0561
     48 H18        -3.7092    6.7452   -3.1191 H           1 KR2       0.0898
     49 H19        -2.1153    6.6744   -1.3273 H           1 KR2       0.2000
     50 H20        -1.6098    7.6267   -2.5921 H           1 KR2       0.2000
     51 H21        -0.9694    6.1169   -2.3929 H           1 KR2       0.2000
     52 H22        -3.7252    4.8217   -1.6403 H           1 KR2       0.0467
     53 H23        -2.2895    4.1506   -2.3799 H           1 KR2       0.0467
     54 H24        -2.7126    2.2187   -3.6168 H           1 KR2       0.0522
     55 H25        -7.0821    3.7786   -5.0389 H           1 KR2       0.0562
@<TRIPOS>BOND
     1     1     2  ar
     2     1     6  ar
     3     2     3  ar
     4     3     4  ar
     5     4     5  ar
     6     5     6  ar
     7     6     7   1
     8     7     8   2
     9     7     9  am
    10     9    10   1
    11     9    15   1
    12    10    11   1
    13    11    12   1
    14    12    13   1
    15    13    14   1
    16    14    15   1
    17    15    16  am
    18    16    17   2
    19    16    18   1
    20    18    19   1
    21    19    20   1
    22    19    21   1
    23    21    22   1
    24    22    23  ar
    25    22    29  ar
    26    23    24  ar
    27    24    25   1
    28    24    26  ar
    29    26    27   1
    30    26    28  ar
    31    28    29  ar
    32    29    30   1
    33     1    31   1
    34     2    32   1
    35     3    33   1
    36     4    34   1
    37     5    35   1
    38    10    36   1
    39    10    37   1
    40    11    38   1
    41    11    39   1
    42    12    40   1
    43    12    41   1
    44    13    42   1
    45    13    43   1
    46    14    44   1
    47    14    45   1
    48    18    46   1
    49    18    47   1
    50    19    48   1
    51    20    49   1
    52    20    50   1
    53    20    51   1
    54    21    52   1
    55    21    53   1
    56    23    54   1
    57    28    55   1
@<TRIPOS>SUBSTRUCTURE
     1  KR2      1

