@<TRIPOS>MOLECULE
2ole_ligand_063
    55    57
SMALL
GAST_HUCK
****
This file was generated by PARSER (from files_GN.cpp)

@<TRIPOS>ATOM
      1 CAY        -2.9521    2.2171   -1.1610 C.ar        1 KR2      -0.0419
      2 CBC        -1.9479    2.7802   -0.3526 C.ar        1 KR2      -0.0562
      3 CBB        -2.1931    3.9757    0.3460 C.ar        1 KR2      -0.0575
      4 CBA        -3.4401    4.6151    0.2253 C.ar        1 KR2      -0.0562
      5 CAZ        -4.4416    4.0582   -0.5912 C.ar        1 KR2      -0.0419
      6 CAX        -4.2018    2.8572   -1.3001 C.ar        1 KR2       0.0519
      7 CAW        -5.1838    2.3065   -2.1103 C.2         1 KR2       0.2286
      8 OAA        -6.1412    1.8524   -1.4983 O.2         1 KR2      -0.3825
      9 NAR        -5.1109    2.2257   -3.4543 N.am        1 KR2      -0.1656
     10 CAV        -6.2066    1.6242   -4.2084 C.3         1 KR2       0.0587
     11 CDD        -5.9070    1.2005   -5.6713 C.3         1 KR2      -0.0303
     12 CNN        -4.7934    0.1232   -5.7845 C.3         1 KR2      -0.0492
     13 CAT        -3.5522    0.3477   -4.8762 C.3         1 KR2      -0.0302
     14 CAS        -3.1271    1.8371   -4.7692 C.3         1 KR2       0.0592
     15 NAQ        -4.0676    2.7495   -4.1294 N.am        1 KR2      -0.1666
     16 CAO        -3.8966    4.0892   -4.1894 C.2         1 KR2       0.2052
     17 OAP        -4.7647    4.8059   -3.7039 O.2         1 KR2      -0.3947
     18 CAN        -2.7759    4.7621   -4.8588 C.3         1 KR2       0.0838
     19 CAL        -2.5318    6.2868   -4.6091 C.3         1 KR2       0.0010
     20 NAM        -2.2311    6.5064   -3.1853 N.4         1 KR2       0.2238
     21 CAK        -3.6284    7.2948   -5.0792 C.3         1 KR2       0.0243
     22 CAG        -3.8904    7.2695   -6.5485 C.ar        1 KR2      -0.0094
     23 CAH        -4.8459    6.3662   -7.0757 C.ar        1 KR2      -0.0298
     24 CAC        -5.1315    6.3324   -8.4548 C.ar        1 KR2       0.1544
     25 FAB        -6.0168    5.4874   -8.9102 F           1 KR2      -0.1895
     26 CAD        -4.4694    7.2142   -9.3285 C.ar        1 KR2       0.1560
     27 FAI        -4.7332    7.2071  -10.6076 F           1 KR2      -0.1911
     28 CAE        -3.5186    8.1182   -8.8224 C.ar        1 KR2      -0.0030
     29 CAF        -3.2242    8.1437   -7.4446 C.ar        1 KR2       0.1274
     30 FAJ        -2.3204    8.9896   -7.0247 F           1 KR2      -0.1934
     31 H1         -2.7705    1.3290   -1.6370 H           1 KR2       0.0669
     32 H2         -1.0439    2.3124   -0.2574 H           1 KR2       0.0629
     33 H3         -1.4697    4.3734    0.9434 H           1 KR2       0.0653
     34 H4         -3.6204    5.4819    0.7364 H           1 KR2       0.0629
     35 H5         -5.3391    4.5440   -0.6784 H           1 KR2       0.0669
     36 H6         -7.0374    2.3354   -4.2155 H           1 KR2       0.0545
     37 H7         -6.5562    0.7206   -3.6982 H           1 KR2       0.0545
     38 H8         -5.6227    2.0839   -6.2499 H           1 KR2       0.0285
     39 H9         -6.8234    0.8059   -6.1192 H           1 KR2       0.0285
     40 H10        -4.4672    0.0816   -6.8263 H           1 KR2       0.0267
     41 H11        -5.2219   -0.8541   -5.5423 H           1 KR2       0.0267
     42 H12        -2.7202   -0.2349   -5.2809 H           1 KR2       0.0285
     43 H13        -3.7573   -0.0414   -3.8746 H           1 KR2       0.0285
     44 H14        -2.9303    2.1705   -5.7913 H           1 KR2       0.0546
     45 H15        -2.1865    1.8743   -4.2182 H           1 KR2       0.0546
     46 H16        -2.8869    4.6046   -5.9323 H           1 KR2       0.0561
     47 H17        -1.8514    4.2599   -4.5565 H           1 KR2       0.0561
     48 H18        -1.6080    6.5512   -5.1410 H           1 KR2       0.0898
     49 H19        -1.8680    7.4527   -3.0654 H           1 KR2       0.2000
     50 H20        -1.5237    5.8388   -2.8716 H           1 KR2       0.2000
     51 H21        -3.0786    6.3925   -2.6275 H           1 KR2       0.2000
     52 H22        -3.3074    8.2994   -4.7924 H           1 KR2       0.0467
     53 H23        -4.5623    7.1320   -4.5396 H           1 KR2       0.0467
     54 H24        -5.3425    5.7239   -6.4547 H           1 KR2       0.0522
     55 H25        -3.0393    8.7607   -9.4594 H           1 KR2       0.0562
@<TRIPOS>BOND
     1     1     2  ar
     2     1     6  ar
     3     2     3  ar
     4     3     4  ar
     5     4     5  ar
     6     5     6  ar
     7     6     7   1
     8     7     8   2
     9     7     9  am
    10     9    10   1
    11     9    15   1
    12    10    11   1
    13    11    12   1
    14    12    13   1
    15    13    14   1
    16    14    15   1
    17    15    16  am
    18    16    17   2
    19    16    18   1
    20    18    19   1
    21    19    20   1
    22    19    21   1
    23    21    22   1
    24    22    23  ar
    25    22    29  ar
    26    23    24  ar
    27    24    25   1
    28    24    26  ar
    29    26    27   1
    30    26    28  ar
    31    28    29  ar
    32    29    30   1
    33     1    31   1
    34     2    32   1
    35     3    33   1
    36     4    34   1
    37     5    35   1
    38    10    36   1
    39    10    37   1
    40    11    38   1
    41    11    39   1
    42    12    40   1
    43    12    41   1
    44    13    42   1
    45    13    43   1
    46    14    44   1
    47    14    45   1
    48    18    46   1
    49    18    47   1
    50    19    48   1
    51    20    49   1
    52    20    50   1
    53    20    51   1
    54    21    52   1
    55    21    53   1
    56    23    54   1
    57    28    55   1
@<TRIPOS>SUBSTRUCTURE
     1  KR2      1

