@<TRIPOS>MOLECULE
2ole_ligand_071
    55    57
SMALL
GAST_HUCK
****
This file was generated by PARSER (from files_GN.cpp)

@<TRIPOS>ATOM
      1 CAY        -7.5486    4.1161   -8.1190 C.ar        1 KR2      -0.0419
      2 CBC        -8.4900    4.0625   -9.1625 C.ar        1 KR2      -0.0562
      3 CBB        -8.1320    4.4827  -10.4559 C.ar        1 KR2      -0.0575
      4 CBA        -6.8327    4.9613  -10.7031 C.ar        1 KR2      -0.0562
      5 CAZ        -5.8904    5.0149   -9.6574 C.ar        1 KR2      -0.0419
      6 CAX        -6.2298    4.5726   -8.3568 C.ar        1 KR2       0.0519
      7 CAW        -5.2852    4.5838   -7.3341 C.2         1 KR2       0.2286
      8 OAA        -4.7584    5.6755   -7.1257 O.2         1 KR2      -0.3825
      9 NAR        -4.8898    3.5062   -6.6282 N.am        1 KR2      -0.1656
     10 CAV        -5.3660    2.1606   -6.9141 C.3         1 KR2       0.0587
     11 CDD        -4.6741    0.9587   -6.2101 C.3         1 KR2      -0.0303
     12 CNN        -3.1599    0.8371   -6.5217 C.3         1 KR2      -0.0492
     13 CAT        -2.2724    1.8523   -5.7580 C.3         1 KR2      -0.0302
     14 CAS        -2.6148    3.3365   -6.0327 C.3         1 KR2       0.0592
     15 NAQ        -3.9789    3.6568   -5.6622 N.am        1 KR2      -0.1666
     16 CAO        -4.3765    4.0338   -4.4315 C.2         1 KR2       0.2052
     17 OAP        -5.5659    4.2908   -4.2484 O.2         1 KR2      -0.3947
     18 CAN        -3.5389    4.2082   -3.2452 C.3         1 KR2       0.0838
     19 CAL        -3.2671    5.7120   -2.9199 C.3         1 KR2       0.0010
     20 NAM        -2.1490    6.2186   -3.7341 N.4         1 KR2       0.2238
     21 CAK        -2.9480    5.9730   -1.4153 C.3         1 KR2       0.0243
     22 CAG        -4.0315    5.7444   -0.4051 C.ar        1 KR2      -0.0094
     23 CAH        -5.3934    5.9476   -0.7489 C.ar        1 KR2      -0.0298
     24 CAC        -6.4179    5.8285    0.2078 C.ar        1 KR2       0.1544
     25 FAB        -7.6577    5.9908   -0.1610 F           1 KR2      -0.1895
     26 CAD        -6.0973    5.5490    1.5463 C.ar        1 KR2       0.1560
     27 FAI        -7.0278    5.4968    2.4578 F           1 KR2      -0.1911
     28 CAE        -4.7593    5.3392    1.9114 C.ar        1 KR2      -0.0030
     29 CAF        -3.7374    5.4276    0.9475 C.ar        1 KR2       0.1274
     30 FAJ        -2.5122    5.2398    1.3565 F           1 KR2      -0.1934
     31 H1         -7.8395    3.8327   -7.1796 H           1 KR2       0.0669
     32 H2         -9.4366    3.7214   -8.9812 H           1 KR2       0.0629
     33 H3         -8.8181    4.4520  -11.2125 H           1 KR2       0.0653
     34 H4         -6.5733    5.2658  -11.6433 H           1 KR2       0.0629
     35 H5         -4.9470    5.3549   -9.8634 H           1 KR2       0.0669
     36 H6         -5.2871    1.9843   -7.9901 H           1 KR2       0.0545
     37 H7         -6.4231    2.1071   -6.6479 H           1 KR2       0.0545
     38 H8         -5.1651    0.0429   -6.5509 H           1 KR2       0.0285
     39 H9         -4.8282    1.0237   -5.1292 H           1 KR2       0.0285
     40 H10        -2.9948    0.9429   -7.5974 H           1 KR2       0.0267
     41 H11        -2.8302   -0.1667   -6.2399 H           1 KR2       0.0267
     42 H12        -1.2319    1.6825   -6.0485 H           1 KR2       0.0285
     43 H13        -2.3528    1.6545   -4.6876 H           1 KR2       0.0285
     44 H14        -2.4567    3.5369   -7.0968 H           1 KR2       0.0546
     45 H15        -1.8982    3.9695   -5.5083 H           1 KR2       0.0546
     46 H16        -2.5873    3.6838   -3.3368 H           1 KR2       0.0561
     47 H17        -4.0498    3.7339   -2.4016 H           1 KR2       0.0561
     48 H18        -4.1236    6.3216   -3.2107 H           1 KR2       0.0898
     49 H19        -1.9997    7.2134   -3.5549 H           1 KR2       0.2000
     50 H20        -2.3547    6.0905   -4.7259 H           1 KR2       0.2000
     51 H21        -1.2978    5.7103   -3.4924 H           1 KR2       0.2000
     52 H22        -2.6569    7.0230   -1.3135 H           1 KR2       0.0467
     53 H23        -2.0724    5.3638   -1.1688 H           1 KR2       0.0467
     54 H24        -5.6627    6.1893   -1.6975 H           1 KR2       0.0522
     55 H25        -4.5266    5.1316    2.8876 H           1 KR2       0.0562
@<TRIPOS>BOND
     1     1     2  ar
     2     1     6  ar
     3     2     3  ar
     4     3     4  ar
     5     4     5  ar
     6     5     6  ar
     7     6     7   1
     8     7     8   2
     9     7     9  am
    10     9    10   1
    11     9    15   1
    12    10    11   1
    13    11    12   1
    14    12    13   1
    15    13    14   1
    16    14    15   1
    17    15    16  am
    18    16    17   2
    19    16    18   1
    20    18    19   1
    21    19    20   1
    22    19    21   1
    23    21    22   1
    24    22    23  ar
    25    22    29  ar
    26    23    24  ar
    27    24    25   1
    28    24    26  ar
    29    26    27   1
    30    26    28  ar
    31    28    29  ar
    32    29    30   1
    33     1    31   1
    34     2    32   1
    35     3    33   1
    36     4    34   1
    37     5    35   1
    38    10    36   1
    39    10    37   1
    40    11    38   1
    41    11    39   1
    42    12    40   1
    43    12    41   1
    44    13    42   1
    45    13    43   1
    46    14    44   1
    47    14    45   1
    48    18    46   1
    49    18    47   1
    50    19    48   1
    51    20    49   1
    52    20    50   1
    53    20    51   1
    54    21    52   1
    55    21    53   1
    56    23    54   1
    57    28    55   1
@<TRIPOS>SUBSTRUCTURE
     1  KR2      1

