@<TRIPOS>MOLECULE
2ole_ligand_034
    55    57
SMALL
GAST_HUCK
****
This file was generated by PARSER (from files_GN.cpp)

@<TRIPOS>ATOM
      1 CAY        -9.0346    4.3299   -5.0993 C.ar        1 KR2      -0.0419
      2 CBC        -9.7627    5.1995   -4.2620 C.ar        1 KR2      -0.0562
      3 CBB        -9.1903    6.4159   -3.8440 C.ar        1 KR2      -0.0575
      4 CBA        -7.8958    6.7626   -4.2668 C.ar        1 KR2      -0.0562
      5 CAZ        -7.1636    5.8888   -5.0903 C.ar        1 KR2      -0.0419
      6 CAX        -7.7191    4.6594   -5.5133 C.ar        1 KR2       0.0519
      7 CAW        -7.0166    3.8232   -6.3748 C.2         1 KR2       0.2286
      8 OAA        -7.5504    3.6520   -7.4663 O.2         1 KR2      -0.3825
      9 NAR        -5.8638    3.1883   -6.0745 N.am        1 KR2      -0.1656
     10 CAV        -5.2221    2.3074   -7.0411 C.3         1 KR2       0.0587
     11 CDD        -4.0221    1.4407   -6.5549 C.3         1 KR2      -0.0303
     12 CNN        -4.3835    0.4365   -5.4249 C.3         1 KR2      -0.0492
     13 CAT        -4.5912    1.0631   -4.0190 C.3         1 KR2      -0.0302
     14 CAS        -5.6806    2.1690   -3.9732 C.3         1 KR2       0.0592
     15 NAQ        -5.3371    3.2725   -4.8476 N.am        1 KR2      -0.1666
     16 CAO        -4.3717    4.1836   -4.5907 C.2         1 KR2       0.2052
     17 OAP        -3.9526    4.8531   -5.5314 O.2         1 KR2      -0.3947
     18 CAN        -3.6734    4.3841   -3.3172 C.3         1 KR2       0.0838
     19 CAL        -3.3334    5.8669   -2.9560 C.3         1 KR2       0.0010
     20 NAM        -2.1379    6.3053   -3.7018 N.4         1 KR2       0.2238
     21 CAK        -3.0610    6.0674   -1.4330 C.3         1 KR2       0.0243
     22 CAG        -4.1413    5.8302   -0.4200 C.ar        1 KR2      -0.0094
     23 CAH        -3.7348    5.6018    0.9213 C.ar        1 KR2      -0.0298
     24 CAC        -4.6673    5.4821    1.9671 C.ar        1 KR2       0.1544
     25 FAB        -4.2492    5.2901    3.1914 F           1 KR2      -0.1895
     26 CAD        -6.0418    5.5876    1.6905 C.ar        1 KR2       0.1560
     27 FAI        -6.9190    5.5252    2.6561 F           1 KR2      -0.1911
     28 CAE        -6.4732    5.7842    0.3690 C.ar        1 KR2      -0.0030
     29 CAF        -5.5379    5.9042   -0.6760 C.ar        1 KR2       0.1274
     30 FAJ        -6.0332    6.0962   -1.8649 F           1 KR2      -0.1934
     31 H1         -9.4681    3.4500   -5.3935 H           1 KR2       0.0669
     32 H2        -10.7078    4.9478   -3.9568 H           1 KR2       0.0629
     33 H3         -9.7176    7.0513   -3.2421 H           1 KR2       0.0653
     34 H4         -7.4884    7.6537   -3.9798 H           1 KR2       0.0629
     35 H5         -6.2367    6.1791   -5.4104 H           1 KR2       0.0669
     36 H6         -4.8717    2.9252   -7.8734 H           1 KR2       0.0545
     37 H7         -5.9703    1.6132   -7.4349 H           1 KR2       0.0545
     38 H8         -3.2000    2.0854   -6.2294 H           1 KR2       0.0285
     39 H9         -3.6595    0.8683   -7.4139 H           1 KR2       0.0285
     40 H10        -3.5683   -0.2896   -5.3454 H           1 KR2       0.0267
     41 H11        -5.2825   -0.1186   -5.7081 H           1 KR2       0.0267
     42 H12        -3.6391    1.4685   -3.6684 H           1 KR2       0.0285
     43 H13        -4.8782    0.2682   -3.3275 H           1 KR2       0.0285
     44 H14        -5.8380    2.4969   -2.9482 H           1 KR2       0.0546
     45 H15        -6.6304    1.7144   -4.2756 H           1 KR2       0.0546
     46 H16        -2.7457    3.8061   -3.3463 H           1 KR2       0.0561
     47 H17        -4.2678    3.9712   -2.5054 H           1 KR2       0.0561
     48 H18        -4.1390    6.5343   -3.2729 H           1 KR2       0.0898
     49 H19        -1.9586    7.2983   -3.5264 H           1 KR2       0.2000
     50 H20        -2.2771    6.1643   -4.7052 H           1 KR2       0.2000
     51 H21        -1.3317    5.7633   -3.3918 H           1 KR2       0.2000
     52 H22        -2.7252    7.0971   -1.2837 H           1 KR2       0.0467
     53 H23        -2.2115    5.4172   -1.1918 H           1 KR2       0.0467
     54 H24        -2.7417    5.5301    1.1555 H           1 KR2       0.0522
     55 H25        -7.4732    5.8554    0.1637 H           1 KR2       0.0562
@<TRIPOS>BOND
     1     1     2  ar
     2     1     6  ar
     3     2     3  ar
     4     3     4  ar
     5     4     5  ar
     6     5     6  ar
     7     6     7   1
     8     7     8   2
     9     7     9  am
    10     9    10   1
    11     9    15   1
    12    10    11   1
    13    11    12   1
    14    12    13   1
    15    13    14   1
    16    14    15   1
    17    15    16  am
    18    16    17   2
    19    16    18   1
    20    18    19   1
    21    19    20   1
    22    19    21   1
    23    21    22   1
    24    22    23  ar
    25    22    29  ar
    26    23    24  ar
    27    24    25   1
    28    24    26  ar
    29    26    27   1
    30    26    28  ar
    31    28    29  ar
    32    29    30   1
    33     1    31   1
    34     2    32   1
    35     3    33   1
    36     4    34   1
    37     5    35   1
    38    10    36   1
    39    10    37   1
    40    11    38   1
    41    11    39   1
    42    12    40   1
    43    12    41   1
    44    13    42   1
    45    13    43   1
    46    14    44   1
    47    14    45   1
    48    18    46   1
    49    18    47   1
    50    19    48   1
    51    20    49   1
    52    20    50   1
    53    20    51   1
    54    21    52   1
    55    21    53   1
    56    23    54   1
    57    28    55   1
@<TRIPOS>SUBSTRUCTURE
     1  KR2      1

