@<TRIPOS>MOLECULE
2p4y_ligand_080
    61    65
SMALL
GAST_HUCK
****
This file was generated by PARSER (from files_GN.cpp)

@<TRIPOS>ATOM
      1 C1         13.5885   14.9867   12.0915 C.ar        1 C03      -0.0494
      2 C2         14.4862   14.4062   11.1728 C.ar        1 C03      -0.0824
      3 C3         14.1295   14.3567    9.8093 C.ar        1 C03      -0.0320
      4 C4         12.9052   14.8637    9.3719 C.ar        1 C03       0.0592
      5 C5         11.9993   15.4301   10.2926 C.ar        1 C03      -0.0175
      6 C6         12.3538   15.5197   11.6531 C.ar        1 C03       0.0845
      7 C10        14.8107   13.8893    8.6881 C.2         1 C03      -0.0105
      8 C11        13.9676   14.1308    7.5880 C.2         1 C03       0.0574
      9 N12        12.8171   14.7138    8.0299 N.pl3       1 C03      -0.2466
     10 C13        16.0823   13.2766    8.7155 C.2         1 C03       0.0368
     11 C14        14.2216   13.7169    6.1880 C.3         1 C03      -0.0027
     12 C18        11.6971   15.1496    7.2306 C.3         1 C03       0.0846
     13 O19        11.4706   16.0815   12.5358 O.3         1 C03      -0.2340
     14 C20        11.7750   17.4274   12.9574 C.3         1 C03       0.5447
     15 F21        10.6964   17.8890   13.6715 F           1 C03      -0.1402
     16 F22        11.9661   18.3000   11.9093 F           1 C03      -0.1402
     17 F23        12.8704   17.4625   13.7892 F           1 C03      -0.1402
     18 C24        10.4591   14.2953    7.1720 C.ar        1 C03      -0.0091
     19 C27         9.2904   14.9405    6.6864 C.ar        1 C03      -0.0287
     20 C28         8.0883   14.2426    6.4494 C.ar        1 C03       0.0876
     21 C29         8.0335   12.8660    6.7221 C.ar        1 C03      -0.0391
     22 C30         9.1618   12.2007    7.2239 C.ar        1 C03      -0.0631
     23 C31        10.3665   12.8987    7.4581 C.ar        1 C03       0.0319
     24 CL1        11.6400   11.9705    8.0803 Cl          1 C03      -0.0872
     25 O36         6.9336   14.8526    6.0165 O.3         1 C03      -0.3024
     26 C37         6.8653   15.4167    4.6837 C.3         1 C03       0.1302
     27 C38         7.3717   14.4756    3.5543 C.3         1 C03      -0.0222
     28 C42         7.4625   16.7698    4.6615 C.2         1 C03       0.0683
     29 O44         8.4522   17.1203    3.8066 O.co2       1 C03      -0.5660
     30 O45         6.9885   17.7143    5.5055 O.co2       1 C03      -0.5660
     31 N46        16.4305   12.2996    9.5801 N.2         1 C03      -0.1679
     32 O47        17.6715   11.9271    9.3856 O.3         1 C03      -0.1876
     33 C48        18.1855   12.6653    8.3803 C.ar        1 C03       0.1433
     34 C49        17.2023   13.5446    7.9321 C.ar        1 C03       0.0134
     35 C50        19.4717   12.6582    7.8147 C.ar        1 C03       0.0032
     36 C51        19.7714   13.5861    6.7928 C.ar        1 C03       0.0851
     37 C52        18.7740   14.4790    6.3363 C.ar        1 C03      -0.0395
     38 C53        17.4860   14.4704    6.9099 C.ar        1 C03      -0.0670
     39 O57        21.0092   13.5954    6.2120 O.3         1 C03      -0.3234
     40 C58        21.9266   14.5081    6.8400 C.3         1 C03       0.0592
     41 H1         13.8448   15.0292   13.0808 H           1 C03       0.0459
     42 H2         15.3867   14.0417   11.4936 H           1 C03       0.0504
     43 H3         11.0978   15.7892    9.9827 H           1 C03       0.0444
     44 H4         15.1083   13.0921    6.0997 H           1 C03       0.0449
     45 H5         14.3526   14.6011    5.5641 H           1 C03       0.0449
     46 H6         13.3714   13.1432    5.8181 H           1 C03       0.0449
     47 H7         12.0126   15.3150    6.1967 H           1 C03       0.0764
     48 H8         11.4283   16.1444    7.5995 H           1 C03       0.0764
     49 H9          9.2994   15.9418    6.4891 H           1 C03       0.0480
     50 H10         7.1724   12.3400    6.5535 H           1 C03       0.0487
     51 H11         9.1072   11.1949    7.4029 H           1 C03       0.0578
     52 H12         5.7985   15.5574    4.4913 H           1 C03       0.0818
     53 H13         7.1768   14.9168    2.5706 H           1 C03       0.0276
     54 H14         6.8496   13.5198    3.6123 H           1 C03       0.0276
     55 H15         8.4450   14.2959    3.6543 H           1 C03       0.0276
     56 H16        20.1778   11.9989    8.1461 H           1 C03       0.0476
     57 H17        18.9827   15.1459    5.5913 H           1 C03       0.0490
     58 H18        16.7690   15.1324    6.5991 H           1 C03       0.0582
     59 H19        22.8778   14.4543    6.3081 H           1 C03       0.0578
     60 H20        22.1064   14.2368    7.8841 H           1 C03       0.0578
     61 H21        21.5661   15.5407    6.7896 H           1 C03       0.0578
@<TRIPOS>BOND
     1     1     2  ar
     2     1     6  ar
     3     2     3  ar
     4     3     4  ar
     5     3     7   1
     6     4     5  ar
     7     4     9   1
     8     5     6  ar
     9     6    13   1
    10     7     8   2
    11     7    10   1
    12     8     9   1
    13     8    11   1
    14     9    12   1
    15    10    31   2
    16    10    34   1
    17    12    18   1
    18    13    14   1
    19    14    15   1
    20    14    16   1
    21    14    17   1
    22    18    19  ar
    23    18    23  ar
    24    19    20  ar
    25    20    21  ar
    26    20    25   1
    27    21    22  ar
    28    22    23  ar
    29    23    24   1
    30    25    26   1
    31    26    27   1
    32    26    28   1
    33    28    29  ar
    34    28    30  ar
    35    31    32   1
    36    32    33   1
    37    33    34  ar
    38    33    35  ar
    39    34    38  ar
    40    35    36  ar
    41    36    37  ar
    42    36    39   1
    43    37    38  ar
    44    39    40   1
    45     1    41   1
    46     2    42   1
    47     5    43   1
    48    11    44   1
    49    11    45   1
    50    11    46   1
    51    12    47   1
    52    12    48   1
    53    19    49   1
    54    21    50   1
    55    22    51   1
    56    26    52   1
    57    27    53   1
    58    27    54   1
    59    27    55   1
    60    35    56   1
    61    37    57   1
    62    38    58   1
    63    40    59   1
    64    40    60   1
    65    40    61   1
@<TRIPOS>SUBSTRUCTURE
     1  C03      1

