@<TRIPOS>MOLECULE
2p4y_ligand_038
    61    65
SMALL
GAST_HUCK
****
This file was generated by PARSER (from files_GN.cpp)

@<TRIPOS>ATOM
      1 C1          4.2459    7.6289   10.3771 C.ar        1 C03      -0.0494
      2 C2          4.5411    8.4778   11.4579 C.ar        1 C03      -0.0824
      3 C3          5.4851    8.0555   12.4135 C.ar        1 C03      -0.0320
      4 C4          6.1154    6.8107   12.3314 C.ar        1 C03       0.0592
      5 C5          5.8049    5.9574   11.2460 C.ar        1 C03      -0.0175
      6 C6          4.8905    6.3757   10.2539 C.ar        1 C03       0.0845
      7 C10         5.9264    8.6760   13.5714 C.2         1 C03      -0.0105
      8 C11         6.8147    7.7793   14.1831 C.2         1 C03       0.0574
      9 N12         6.9329    6.6616   13.4087 N.pl3       1 C03      -0.2466
     10 C13         5.5436    9.9651   13.9924 C.2         1 C03       0.0368
     11 C14         7.5299    8.0575   15.4496 C.3         1 C03      -0.0027
     12 C18         7.7223    5.4840   13.7097 C.3         1 C03       0.0846
     13 O19         4.5508    5.5234    9.2368 O.3         1 C03      -0.2340
     14 C20         5.2511    5.7374    7.9958 C.3         1 C03       0.5447
     15 F21         4.8254    4.7756    7.1153 F           1 C03      -0.1402
     16 F22         6.6144    5.6010    8.1244 F           1 C03      -0.1402
     17 F23         4.9597    6.9586    7.4345 F           1 C03      -0.1402
     18 C24         9.1336    5.5455   13.2139 C.ar        1 C03      -0.0091
     19 C27         9.3862    5.2831   11.8412 C.ar        1 C03      -0.0287
     20 C28        10.6984    5.2503   11.3200 C.ar        1 C03       0.0876
     21 C29        11.7805    5.4967   12.1851 C.ar        1 C03      -0.0391
     22 C30        11.5587    5.7667   13.5393 C.ar        1 C03      -0.0631
     23 C31        10.2556    5.7587   14.0645 C.ar        1 C03       0.0319
     24 CL1        10.1600    5.9245   15.7438 Cl          1 C03      -0.0872
     25 O36        10.8947    4.8539   10.0172 O.3         1 C03      -0.3024
     26 C37        11.3495    5.8614    9.0824 C.3         1 C03       0.1302
     27 C38        10.9652    5.3901    7.6624 C.3         1 C03      -0.0222
     28 C42        12.8144    6.0770    9.1491 C.2         1 C03       0.0683
     29 O44        13.3552    7.2695    8.8094 O.co2       1 C03      -0.5660
     30 O45        13.6464    5.0490    9.4305 O.co2       1 C03      -0.5660
     31 N46         5.7883   11.0934   13.2964 N.2         1 C03      -0.1679
     32 O47         5.3370   12.1375   13.9482 O.3         1 C03      -0.1876
     33 C48         4.7705   11.7162   15.0992 C.ar        1 C03       0.1433
     34 C49         4.8718   10.3304   15.1526 C.ar        1 C03       0.0134
     35 C50         4.1498   12.4402   16.1292 C.ar        1 C03       0.0032
     36 C51         3.6207   11.7367   17.2344 C.ar        1 C03       0.0851
     37 C52         3.6875   10.3229   17.2673 C.ar        1 C03      -0.0395
     38 C53         4.3217    9.6102   16.2305 C.ar        1 C03      -0.0670
     39 O57         2.9924   12.4202   18.2396 O.3         1 C03      -0.3234
     40 C58         3.8446   12.6789   19.3688 C.3         1 C03       0.0592
     41 H1          3.5498    7.9179    9.6852 H           1 C03       0.0459
     42 H2          4.0576    9.3725   11.5597 H           1 C03       0.0504
     43 H3          6.2227    5.0282   11.1780 H           1 C03       0.0444
     44 H4          7.1688    8.9617   15.9339 H           1 C03       0.0449
     45 H5          8.5871    8.1990   15.2393 H           1 C03       0.0449
     46 H6          7.4052    7.2356   16.1537 H           1 C03       0.0449
     47 H7          7.2370    4.5985   13.2909 H           1 C03       0.0764
     48 H8          7.7049    5.2998   14.7818 H           1 C03       0.0764
     49 H9          8.6125    5.0602   11.2112 H           1 C03       0.0480
     50 H10        12.7413    5.4433   11.8486 H           1 C03       0.0487
     51 H11        12.3701    5.9225   14.1423 H           1 C03       0.0578
     52 H12        10.8340    6.8118    9.2708 H           1 C03       0.0818
     53 H13        11.2456    6.1418    6.9272 H           1 C03       0.0276
     54 H14         9.8871    5.2367    7.5937 H           1 C03       0.0276
     55 H15        11.4677    4.4523    7.4175 H           1 C03       0.0276
     56 H16         4.0877   13.4591   16.0758 H           1 C03       0.0476
     57 H17         3.2767    9.8106   18.0511 H           1 C03       0.0490
     58 H18         4.3678    8.5913   16.2570 H           1 C03       0.0582
     59 H19         3.2639   13.2247   20.1116 H           1 C03       0.0578
     60 H20         4.7028   13.2942   19.0887 H           1 C03       0.0578
     61 H21         4.1956   11.7513   19.8279 H           1 C03       0.0578
@<TRIPOS>BOND
     1     1     2  ar
     2     1     6  ar
     3     2     3  ar
     4     3     4  ar
     5     3     7   1
     6     4     5  ar
     7     4     9   1
     8     5     6  ar
     9     6    13   1
    10     7     8   2
    11     7    10   1
    12     8     9   1
    13     8    11   1
    14     9    12   1
    15    10    31   2
    16    10    34   1
    17    12    18   1
    18    13    14   1
    19    14    15   1
    20    14    16   1
    21    14    17   1
    22    18    19  ar
    23    18    23  ar
    24    19    20  ar
    25    20    21  ar
    26    20    25   1
    27    21    22  ar
    28    22    23  ar
    29    23    24   1
    30    25    26   1
    31    26    27   1
    32    26    28   1
    33    28    29  ar
    34    28    30  ar
    35    31    32   1
    36    32    33   1
    37    33    34  ar
    38    33    35  ar
    39    34    38  ar
    40    35    36  ar
    41    36    37  ar
    42    36    39   1
    43    37    38  ar
    44    39    40   1
    45     1    41   1
    46     2    42   1
    47     5    43   1
    48    11    44   1
    49    11    45   1
    50    11    46   1
    51    12    47   1
    52    12    48   1
    53    19    49   1
    54    21    50   1
    55    22    51   1
    56    26    52   1
    57    27    53   1
    58    27    54   1
    59    27    55   1
    60    35    56   1
    61    37    57   1
    62    38    58   1
    63    40    59   1
    64    40    60   1
    65    40    61   1
@<TRIPOS>SUBSTRUCTURE
     1  C03      1

