@<TRIPOS>MOLECULE
2p4y_ligand_070
    61    65
SMALL
GAST_HUCK
****
This file was generated by PARSER (from files_GN.cpp)

@<TRIPOS>ATOM
      1 C1         19.2825   16.4144   11.9850 C.ar        1 C03      -0.0494
      2 C2         18.8976   17.0888   13.1574 C.ar        1 C03      -0.0824
      3 C3         17.5475   17.0318   13.5527 C.ar        1 C03      -0.0320
      4 C4         16.5933   16.3138   12.8271 C.ar        1 C03       0.0592
      5 C5         17.0074   15.5779   11.6965 C.ar        1 C03      -0.0175
      6 C6         18.3511   15.6436   11.2481 C.ar        1 C03       0.0845
      7 C10        16.8957   17.6134   14.6268 C.2         1 C03      -0.0105
      8 C11        15.5421   17.2792   14.5078 C.2         1 C03       0.0574
      9 N12        15.3685   16.5097   13.3937 N.pl3       1 C03      -0.2466
     10 C13        17.4988   18.3696   15.6422 C.2         1 C03       0.0368
     11 C14        14.4799   17.7041   15.4522 C.3         1 C03      -0.0027
     12 C18        14.0913   15.9488   12.9808 C.3         1 C03       0.0846
     13 O19        18.7812   15.1238   10.0442 O.3         1 C03      -0.2340
     14 C20        18.5582   13.7540    9.6707 C.3         1 C03       0.5447
     15 F21        19.2835   13.5141    8.5308 F           1 C03      -0.1402
     16 F22        17.2383   13.5107    9.3621 F           1 C03      -0.1402
     17 F23        18.9921   12.8707   10.6268 F           1 C03      -0.1402
     18 C24        13.8632   15.7384   11.5190 C.ar        1 C03      -0.0091
     19 C27        13.7439   14.4111   11.0322 C.ar        1 C03      -0.0287
     20 C28        13.6920   14.1278    9.6496 C.ar        1 C03       0.0876
     21 C29        13.6659   15.2119    8.7485 C.ar        1 C03      -0.0391
     22 C30        13.7047   16.5388    9.2102 C.ar        1 C03      -0.0631
     23 C31        13.8085   16.8129   10.5897 C.ar        1 C03       0.0319
     24 CL1        13.8847   18.4410   11.0667 Cl          1 C03      -0.0872
     25 O36        13.6651   12.8661    9.0980 O.3         1 C03      -0.3024
     26 C37        13.8894   11.6546    9.8570 C.3         1 C03       0.1302
     27 C38        15.3237   11.5271   10.4363 C.3         1 C03      -0.0222
     28 C42        13.6240   10.5184    8.9571 C.2         1 C03       0.0683
     29 O44        14.3264   10.3619    7.8126 O.co2       1 C03      -0.5660
     30 O45        12.7820    9.5289    9.3286 O.co2       1 C03      -0.5660
     31 N46        17.8665   17.8955   16.8488 N.2         1 C03      -0.1679
     32 O47        18.3531   18.8607   17.5894 O.3         1 C03      -0.1876
     33 C48        18.3061   20.0114   16.8793 C.ar        1 C03       0.1433
     34 C49        17.7677   19.7289   15.6290 C.ar        1 C03       0.0134
     35 C50        18.6769   21.3186   17.2317 C.ar        1 C03       0.0032
     36 C51        18.4683   22.3600   16.2971 C.ar        1 C03       0.0851
     37 C52        17.9424   22.0653   15.0157 C.ar        1 C03      -0.0395
     38 C53        17.5829   20.7450   14.6733 C.ar        1 C03      -0.0670
     39 O57        18.8003   23.6455   16.6199 O.3         1 C03      -0.3234
     40 C58        17.7396   24.3462   17.2947 C.3         1 C03       0.0592
     41 H1         20.2464   16.5040   11.6519 H           1 C03       0.0459
     42 H2         19.5773   17.6430   13.6825 H           1 C03       0.0504
     43 H3         16.3369   15.0252   11.1718 H           1 C03       0.0444
     44 H4         14.8717   18.3038   16.2732 H           1 C03       0.0449
     45 H5         13.9974   16.8233   15.8752 H           1 C03       0.0449
     46 H6         13.7383   18.3023   14.9218 H           1 C03       0.0449
     47 H7         13.2627   16.5701   13.3268 H           1 C03       0.0764
     48 H8         14.0055   15.0044   13.5229 H           1 C03       0.0764
     49 H9         13.7355   13.6364   11.6901 H           1 C03       0.0480
     50 H10        13.6182   15.0354    7.7421 H           1 C03       0.0487
     51 H11        13.6819   17.3055    8.5283 H           1 C03       0.0578
     52 H12        13.1734   11.6018   10.6828 H           1 C03       0.0818
     53 H13        15.4194   10.6051   11.0187 H           1 C03       0.0276
     54 H14        15.5364   12.3715   11.0957 H           1 C03       0.0276
     55 H15        16.0686   11.5079    9.6363 H           1 C03       0.0276
     56 H16        19.0673   21.5104   18.1562 H           1 C03       0.0476
     57 H17        17.8084   22.8155   14.3346 H           1 C03       0.0490
     58 H18        17.1881   20.5311   13.7540 H           1 C03       0.0582
     59 H19        18.0829   25.3570   17.5140 H           1 C03       0.0578
     60 H20        17.4803   23.8635   18.2416 H           1 C03       0.0578
     61 H21        16.8464   24.4186   16.6674 H           1 C03       0.0578
@<TRIPOS>BOND
     1     1     2  ar
     2     1     6  ar
     3     2     3  ar
     4     3     4  ar
     5     3     7   1
     6     4     5  ar
     7     4     9   1
     8     5     6  ar
     9     6    13   1
    10     7     8   2
    11     7    10   1
    12     8     9   1
    13     8    11   1
    14     9    12   1
    15    10    31   2
    16    10    34   1
    17    12    18   1
    18    13    14   1
    19    14    15   1
    20    14    16   1
    21    14    17   1
    22    18    19  ar
    23    18    23  ar
    24    19    20  ar
    25    20    21  ar
    26    20    25   1
    27    21    22  ar
    28    22    23  ar
    29    23    24   1
    30    25    26   1
    31    26    27   1
    32    26    28   1
    33    28    29  ar
    34    28    30  ar
    35    31    32   1
    36    32    33   1
    37    33    34  ar
    38    33    35  ar
    39    34    38  ar
    40    35    36  ar
    41    36    37  ar
    42    36    39   1
    43    37    38  ar
    44    39    40   1
    45     1    41   1
    46     2    42   1
    47     5    43   1
    48    11    44   1
    49    11    45   1
    50    11    46   1
    51    12    47   1
    52    12    48   1
    53    19    49   1
    54    21    50   1
    55    22    51   1
    56    26    52   1
    57    27    53   1
    58    27    54   1
    59    27    55   1
    60    35    56   1
    61    37    57   1
    62    38    58   1
    63    40    59   1
    64    40    60   1
    65    40    61   1
@<TRIPOS>SUBSTRUCTURE
     1  C03      1

