@<TRIPOS>MOLECULE
2p4y_ligand_034
    61    65
SMALL
GAST_HUCK
****
This file was generated by PARSER (from files_GN.cpp)

@<TRIPOS>ATOM
      1 C1          4.5507    9.4168   13.8087 C.ar        1 C03      -0.0494
      2 C2          5.4714    8.7753   12.9614 C.ar        1 C03      -0.0824
      3 C3          5.0099    8.1998   11.7580 C.ar        1 C03      -0.0320
      4 C4          3.6672    8.3003   11.3779 C.ar        1 C03       0.0592
      5 C5          2.7367    8.9209   12.2423 C.ar        1 C03      -0.0175
      6 C6          3.1794    9.4726   13.4711 C.ar        1 C03       0.0845
      7 C10         5.6784    7.5199   10.7426 C.2         1 C03      -0.0105
      8 C11         4.7257    7.2690    9.7430 C.2         1 C03       0.0574
      9 N12         3.5216    7.7574   10.1448 N.pl3       1 C03      -0.2466
     10 C13         7.0552    7.2109   10.7401 C.2         1 C03       0.0368
     11 C14         4.9863    6.5739    8.4610 C.3         1 C03      -0.0027
     12 C18         2.2815    7.7035    9.3896 C.3         1 C03       0.0846
     13 O19         2.2757   10.0901   14.2951 O.3         1 C03      -0.2340
     14 C20         1.7586    9.2524   15.3539 C.3         1 C03       0.5447
     15 F21         0.8316    9.9978   16.0355 F           1 C03      -0.1402
     16 F22         2.7407    8.8833   16.2474 F           1 C03      -0.1402
     17 F23         1.1167    8.1242   14.8873 F           1 C03      -0.1402
     18 C24         2.0605    8.8952    8.5068 C.ar        1 C03      -0.0091
     19 C27         2.1954   10.1836    9.0847 C.ar        1 C03      -0.0287
     20 C28         1.9680   11.3553    8.3361 C.ar        1 C03       0.0876
     21 C29         1.5545   11.2534    6.9975 C.ar        1 C03      -0.0391
     22 C30         1.4274    9.9887    6.3982 C.ar        1 C03      -0.0631
     23 C31         1.6780    8.8127    7.1359 C.ar        1 C03       0.0319
     24 CL1         1.4603    7.3395    6.3112 Cl          1 C03      -0.0872
     25 O36         2.1163   12.5822    8.9214 O.3         1 C03      -0.3024
     26 C37         3.4813   13.0338    9.0890 C.3         1 C03       0.1302
     27 C38         3.8194   13.0138   10.5963 C.3         1 C03      -0.0222
     28 C42         3.5952   14.3985    8.5395 C.2         1 C03       0.0683
     29 O44         4.6858   14.7511    7.8163 O.co2       1 C03      -0.5660
     30 O45         2.7410   15.3691    8.9356 O.co2       1 C03      -0.5660
     31 N46         7.8849    7.4077    9.6914 N.2         1 C03      -0.1679
     32 O47         9.1175    7.1200   10.0258 O.3         1 C03      -0.1876
     33 C48         9.1414    6.7246   11.3231 C.ar        1 C03       0.1433
     34 C49         7.8338    6.7574   11.8006 C.ar        1 C03       0.0134
     35 C50        10.2216    6.3495   12.1401 C.ar        1 C03       0.0032
     36 C51         9.9585    5.9751   13.4845 C.ar        1 C03       0.0851
     37 C52         8.6214    5.9781   13.9648 C.ar        1 C03      -0.0395
     38 C53         7.5499    6.3617   13.1281 C.ar        1 C03      -0.0670
     39 O57        10.9910    5.6903   14.3387 O.3         1 C03      -0.3234
     40 C58        10.9885    4.3388   14.8274 C.3         1 C03       0.0592
     41 H1          4.8750    9.8393   14.6883 H           1 C03       0.0459
     42 H2          6.4652    8.7505   13.2105 H           1 C03       0.0504
     43 H3          1.7505    9.0024   11.9870 H           1 C03       0.0444
     44 H4          6.0344    6.2963    8.3467 H           1 C03       0.0449
     45 H5          4.7083    7.2270    7.6326 H           1 C03       0.0449
     46 H6          4.3777    5.6692    8.4167 H           1 C03       0.0449
     47 H7          1.4234    7.6455   10.0609 H           1 C03       0.0764
     48 H8          2.2556    6.7665    8.8328 H           1 C03       0.0764
     49 H9          2.4548   10.2892   10.0704 H           1 C03       0.0480
     50 H10         1.3712   12.0964    6.4475 H           1 C03       0.0487
     51 H11         1.1231    9.9292    5.4233 H           1 C03       0.0578
     52 H12         4.2142   12.3865    8.5850 H           1 C03       0.0818
     53 H13         4.8309   13.3918   10.7646 H           1 C03       0.0276
     54 H14         3.7671   11.9911   10.9756 H           1 C03       0.0276
     55 H15         3.1159   13.6304   11.1599 H           1 C03       0.0276
     56 H16        11.1795    6.3664   11.7708 H           1 C03       0.0476
     57 H17         8.4330    5.7079   14.9353 H           1 C03       0.0490
     58 H18         6.5859    6.3615   13.4809 H           1 C03       0.0582
     59 H19        11.8112    4.2524   15.5411 H           1 C03       0.0578
     60 H20        11.1533    3.6307   14.0088 H           1 C03       0.0578
     61 H21        10.0532    4.1011   15.3455 H           1 C03       0.0578
@<TRIPOS>BOND
     1     1     2  ar
     2     1     6  ar
     3     2     3  ar
     4     3     4  ar
     5     3     7   1
     6     4     5  ar
     7     4     9   1
     8     5     6  ar
     9     6    13   1
    10     7     8   2
    11     7    10   1
    12     8     9   1
    13     8    11   1
    14     9    12   1
    15    10    31   2
    16    10    34   1
    17    12    18   1
    18    13    14   1
    19    14    15   1
    20    14    16   1
    21    14    17   1
    22    18    19  ar
    23    18    23  ar
    24    19    20  ar
    25    20    21  ar
    26    20    25   1
    27    21    22  ar
    28    22    23  ar
    29    23    24   1
    30    25    26   1
    31    26    27   1
    32    26    28   1
    33    28    29  ar
    34    28    30  ar
    35    31    32   1
    36    32    33   1
    37    33    34  ar
    38    33    35  ar
    39    34    38  ar
    40    35    36  ar
    41    36    37  ar
    42    36    39   1
    43    37    38  ar
    44    39    40   1
    45     1    41   1
    46     2    42   1
    47     5    43   1
    48    11    44   1
    49    11    45   1
    50    11    46   1
    51    12    47   1
    52    12    48   1
    53    19    49   1
    54    21    50   1
    55    22    51   1
    56    26    52   1
    57    27    53   1
    58    27    54   1
    59    27    55   1
    60    35    56   1
    61    37    57   1
    62    38    58   1
    63    40    59   1
    64    40    60   1
    65    40    61   1
@<TRIPOS>SUBSTRUCTURE
     1  C03      1

