@<TRIPOS>MOLECULE
2p4y_ligand_059
    61    65
SMALL
GAST_HUCK
****
This file was generated by PARSER (from files_GN.cpp)

@<TRIPOS>ATOM
      1 C1          1.7918    8.9836    8.7039 C.ar        1 C03      -0.0494
      2 C2          2.2555    9.4236    9.9536 C.ar        1 C03      -0.0824
      3 C3          3.3124    8.7250   10.5749 C.ar        1 C03      -0.0320
      4 C4          3.9201    7.6286    9.9564 C.ar        1 C03       0.0592
      5 C5          3.4380    7.1758    8.7091 C.ar        1 C03      -0.0175
      6 C6          2.3854    7.8671    8.0677 C.ar        1 C03       0.0845
      7 C10         3.9773    8.9428   11.7718 C.2         1 C03      -0.0105
      8 C11         4.9855    7.9712   11.8540 C.2         1 C03       0.0574
      9 N12         4.9392    7.1770   10.7378 N.pl3       1 C03      -0.2466
     10 C13         3.6808    9.9611   12.7030 C.2         1 C03       0.0368
     11 C14         5.8767    7.7976   13.0217 C.3         1 C03      -0.0027
     12 C18         5.7221    6.0126   10.3791 C.3         1 C03       0.0846
     13 O19         1.8948    7.4444    6.8628 O.3         1 C03      -0.2340
     14 C20         2.5763    7.9660    5.7039 C.3         1 C03       0.5447
     15 F21         1.8420    7.5958    4.6056 F           1 C03      -0.1402
     16 F22         3.8340    7.4285    5.5651 F           1 C03      -0.1402
     17 F23         2.6630    9.3411    5.6862 F           1 C03      -0.1402
     18 C24         7.0090    5.7545   11.0913 C.ar        1 C03      -0.0091
     19 C27         8.1615    6.4649   10.6730 C.ar        1 C03      -0.0287
     20 C28         9.4016    6.2986   11.2924 C.ar        1 C03       0.0876
     21 C29         9.4988    5.4391   12.4174 C.ar        1 C03      -0.0391
     22 C30         8.3755    4.7221   12.8446 C.ar        1 C03      -0.0631
     23 C31         7.1437    4.8404   12.1761 C.ar        1 C03       0.0319
     24 CL1         5.8645    3.8870   12.7493 Cl          1 C03      -0.0872
     25 O36        10.4709    6.9768   10.7560 O.3         1 C03      -0.3024
     26 C37        11.7485    6.3167   10.5878 C.3         1 C03       0.1302
     27 C38        12.5615    7.1545    9.5784 C.3         1 C03      -0.0222
     28 C42        11.6776    4.9111   10.1161 C.2         1 C03       0.0683
     29 O44        12.2775    3.9234   10.8153 O.co2       1 C03      -0.5660
     30 O45        11.0199    4.5925    8.9791 O.co2       1 C03      -0.5660
     31 N46         4.5681   10.8634   13.1587 N.2         1 C03      -0.1679
     32 O47         4.0057   11.6547   14.0401 O.3         1 C03      -0.1876
     33 C48         2.7202   11.2815   14.1923 C.ar        1 C03       0.1433
     34 C49         2.4674   10.2041   13.3519 C.ar        1 C03       0.0134
     35 C50         1.7169   11.7942   15.0369 C.ar        1 C03       0.0032
     36 C51         0.4406   11.1943   15.0189 C.ar        1 C03       0.0851
     37 C52         0.1862   10.0988   14.1535 C.ar        1 C03      -0.0395
     38 C53         1.2068    9.5893   13.3236 C.ar        1 C03      -0.0670
     39 O57        -0.5666   11.6998   15.7920 O.3         1 C03      -0.3234
     40 C58        -0.6329   11.1135   17.1031 C.3         1 C03       0.0592
     41 H1          1.0258    9.4831    8.2429 H           1 C03       0.0459
     42 H2          1.8341   10.2408   10.3996 H           1 C03       0.0504
     43 H3          3.8555    6.3652    8.2500 H           1 C03       0.0444
     44 H4          5.6701    8.5024   13.8269 H           1 C03       0.0449
     45 H5          6.9104    7.9363   12.7165 H           1 C03       0.0449
     46 H6          5.7451    6.7967   13.4261 H           1 C03       0.0449
     47 H7          5.9723    6.0777    9.3152 H           1 C03       0.0764
     48 H8          5.0670    5.1451   10.4669 H           1 C03       0.0764
     49 H9          8.1009    7.1069    9.8701 H           1 C03       0.0480
     50 H10        10.3936    5.3099   12.8912 H           1 C03       0.0487
     51 H11         8.4697    4.0902   13.6488 H           1 C03       0.0578
     52 H12        12.2734    6.3426   11.5489 H           1 C03       0.0818
     53 H13        13.5663    6.7443    9.4570 H           1 C03       0.0276
     54 H14        12.6446    8.1855    9.9283 H           1 C03       0.0276
     55 H15        12.0606    7.1545    8.6074 H           1 C03       0.0276
     56 H16         1.9213   12.5808   15.6559 H           1 C03       0.0476
     57 H17        -0.7419    9.6716   14.1346 H           1 C03       0.0490
     58 H18         1.0263    8.7850   12.7161 H           1 C03       0.0582
     59 H19        -1.4711   11.5648   17.6356 H           1 C03       0.0578
     60 H20         0.2784   11.3116   17.6728 H           1 C03       0.0578
     61 H21        -0.8048   10.0355   17.0501 H           1 C03       0.0578
@<TRIPOS>BOND
     1     1     2  ar
     2     1     6  ar
     3     2     3  ar
     4     3     4  ar
     5     3     7   1
     6     4     5  ar
     7     4     9   1
     8     5     6  ar
     9     6    13   1
    10     7     8   2
    11     7    10   1
    12     8     9   1
    13     8    11   1
    14     9    12   1
    15    10    31   2
    16    10    34   1
    17    12    18   1
    18    13    14   1
    19    14    15   1
    20    14    16   1
    21    14    17   1
    22    18    19  ar
    23    18    23  ar
    24    19    20  ar
    25    20    21  ar
    26    20    25   1
    27    21    22  ar
    28    22    23  ar
    29    23    24   1
    30    25    26   1
    31    26    27   1
    32    26    28   1
    33    28    29  ar
    34    28    30  ar
    35    31    32   1
    36    32    33   1
    37    33    34  ar
    38    33    35  ar
    39    34    38  ar
    40    35    36  ar
    41    36    37  ar
    42    36    39   1
    43    37    38  ar
    44    39    40   1
    45     1    41   1
    46     2    42   1
    47     5    43   1
    48    11    44   1
    49    11    45   1
    50    11    46   1
    51    12    47   1
    52    12    48   1
    53    19    49   1
    54    21    50   1
    55    22    51   1
    56    26    52   1
    57    27    53   1
    58    27    54   1
    59    27    55   1
    60    35    56   1
    61    37    57   1
    62    38    58   1
    63    40    59   1
    64    40    60   1
    65    40    61   1
@<TRIPOS>SUBSTRUCTURE
     1  C03      1

