@<TRIPOS>MOLECULE
2p4y_ligand_094
    61    65
SMALL
GAST_HUCK
****
This file was generated by PARSER (from files_GN.cpp)

@<TRIPOS>ATOM
      1 C1         13.8593   14.8815   11.9281 C.ar        1 C03      -0.0494
      2 C2         14.7846   14.4173   10.9732 C.ar        1 C03      -0.0824
      3 C3         14.5693   14.7131    9.6126 C.ar        1 C03      -0.0320
      4 C4         13.4829   15.4902    9.2000 C.ar        1 C03       0.0592
      5 C5         12.5548   15.9534   10.1627 C.ar        1 C03      -0.0175
      6 C6         12.7468   15.6544   11.5288 C.ar        1 C03       0.0845
      7 C10        15.2697   14.3380    8.4690 C.2         1 C03      -0.0105
      8 C11        14.5496   14.8542    7.3821 C.2         1 C03       0.0574
      9 N12        13.5097   15.6070    7.8470 N.pl3       1 C03      -0.2466
     10 C13        16.4409   13.5514    8.4573 C.2         1 C03       0.0368
     11 C14        14.8034   14.5217    5.9592 C.3         1 C03      -0.0027
     12 C18        12.5060   16.2879    7.0574 C.3         1 C03       0.0846
     13 O19        11.8106   16.0371   12.4522 O.3         1 C03      -0.2340
     14 C20        12.0372   17.3214   13.0641 C.3         1 C03       0.5447
     15 F21        10.9957   17.5541   13.9237 F           1 C03      -0.1402
     16 F22        12.0511   18.3526   12.1530 F           1 C03      -0.1402
     17 F23        13.1965   17.3476   13.8041 F           1 C03      -0.1402
     18 C24        13.0218   17.1320    5.9350 C.ar        1 C03      -0.0091
     19 C27        13.9417   18.1695    6.2388 C.ar        1 C03      -0.0287
     20 C28        14.4620   19.0056    5.2299 C.ar        1 C03       0.0876
     21 C29        14.0824   18.7927    3.8945 C.ar        1 C03      -0.0391
     22 C30        13.1671   17.7790    3.5739 C.ar        1 C03      -0.0631
     23 C31        12.6254   16.9535    4.5792 C.ar        1 C03       0.0319
     24 CL1        11.5357   15.7581    4.0614 Cl          1 C03      -0.0872
     25 O36        15.3739   19.9899    5.4906 O.3         1 C03      -0.3024
     26 C37        14.9206   21.3045    5.9060 C.3         1 C03       0.1302
     27 C38        15.1211   21.4697    7.4334 C.3         1 C03      -0.0222
     28 C42        13.5612   21.7149    5.4702 C.2         1 C03       0.0683
     29 O44        12.4677   21.2940    6.1503 O.co2       1 C03      -0.5660
     30 O45        13.3753   22.0565    4.1757 O.co2       1 C03      -0.5660
     31 N46        16.6535   12.4859    9.2552 N.2         1 C03      -0.1679
     32 O47        17.8453   11.9820    9.0515 O.3         1 C03      -0.1876
     33 C48        18.4635   12.7214    8.1081 C.ar        1 C03       0.1433
     34 C49        17.5991   13.7340    7.7033 C.ar        1 C03       0.0134
     35 C50        19.7541   12.6012    7.5635 C.ar        1 C03       0.0032
     36 C51        20.1798   13.5447    6.6026 C.ar        1 C03       0.0851
     37 C52        19.3004   14.5726    6.1867 C.ar        1 C03      -0.0395
     38 C53        18.0073   14.6784    6.7433 C.ar        1 C03      -0.0670
     39 O57        21.4171   13.4170    6.0353 O.3         1 C03      -0.3234
     40 C58        22.4031   14.3072    6.5831 C.3         1 C03       0.0592
     41 H1         13.9903   14.6438   12.9136 H           1 C03       0.0459
     42 H2         15.5817   13.8528   11.2727 H           1 C03       0.0504
     43 H3         11.7282   16.4809    9.8811 H           1 C03       0.0444
     44 H4         15.5253   13.7123    5.8499 H           1 C03       0.0449
     45 H5         15.1828   15.3968    5.4314 H           1 C03       0.0449
     46 H6         13.8759   14.1950    5.4874 H           1 C03       0.0449
     47 H7         11.9097   16.9602    7.6723 H           1 C03       0.0764
     48 H8         11.8224   15.5164    6.7064 H           1 C03       0.0764
     49 H9         14.2481   18.3142    7.2066 H           1 C03       0.0480
     50 H10        14.4642   19.3843    3.1516 H           1 C03       0.0487
     51 H11        12.8944   17.6516    2.5958 H           1 C03       0.0578
     52 H12        15.6221   21.9996    5.4378 H           1 C03       0.0818
     53 H13        14.8929   22.4928    7.7409 H           1 C03       0.0276
     54 H14        16.1635   21.2592    7.6908 H           1 C03       0.0276
     55 H15        14.4806   20.7823    7.9861 H           1 C03       0.0276
     56 H16        20.3649   11.8437    7.8692 H           1 C03       0.0476
     57 H17        19.5980   15.2473    5.4813 H           1 C03       0.0490
     58 H18        17.3863   15.4348    6.4511 H           1 C03       0.0582
     59 H19        23.3581   14.0933    6.1001 H           1 C03       0.0578
     60 H20        22.5271   14.1595    7.6599 H           1 C03       0.0578
     61 H21        22.1504   15.3519    6.3873 H           1 C03       0.0578
@<TRIPOS>BOND
     1     1     2  ar
     2     1     6  ar
     3     2     3  ar
     4     3     4  ar
     5     3     7   1
     6     4     5  ar
     7     4     9   1
     8     5     6  ar
     9     6    13   1
    10     7     8   2
    11     7    10   1
    12     8     9   1
    13     8    11   1
    14     9    12   1
    15    10    31   2
    16    10    34   1
    17    12    18   1
    18    13    14   1
    19    14    15   1
    20    14    16   1
    21    14    17   1
    22    18    19  ar
    23    18    23  ar
    24    19    20  ar
    25    20    21  ar
    26    20    25   1
    27    21    22  ar
    28    22    23  ar
    29    23    24   1
    30    25    26   1
    31    26    27   1
    32    26    28   1
    33    28    29  ar
    34    28    30  ar
    35    31    32   1
    36    32    33   1
    37    33    34  ar
    38    33    35  ar
    39    34    38  ar
    40    35    36  ar
    41    36    37  ar
    42    36    39   1
    43    37    38  ar
    44    39    40   1
    45     1    41   1
    46     2    42   1
    47     5    43   1
    48    11    44   1
    49    11    45   1
    50    11    46   1
    51    12    47   1
    52    12    48   1
    53    19    49   1
    54    21    50   1
    55    22    51   1
    56    26    52   1
    57    27    53   1
    58    27    54   1
    59    27    55   1
    60    35    56   1
    61    37    57   1
    62    38    58   1
    63    40    59   1
    64    40    60   1
    65    40    61   1
@<TRIPOS>SUBSTRUCTURE
     1  C03      1

