@<TRIPOS>MOLECULE
2p4y_ligand_010
    61    65
SMALL
GAST_HUCK
****
This file was generated by PARSER (from files_GN.cpp)

@<TRIPOS>ATOM
      1 C1         12.4523   16.4669    7.9368 C.ar        1 C03      -0.0494
      2 C2         11.7347   15.2554    7.9473 C.ar        1 C03      -0.0824
      3 C3         12.4081   14.0622    8.2879 C.ar        1 C03      -0.0320
      4 C4         13.7435   14.0648    8.7037 C.ar        1 C03       0.0592
      5 C5         14.4630   15.2763    8.6441 C.ar        1 C03      -0.0175
      6 C6         13.8257   16.4814    8.2822 C.ar        1 C03       0.0845
      7 C10        11.9543   12.7476    8.3404 C.2         1 C03      -0.0105
      8 C11        13.0151   11.9863    8.8482 C.2         1 C03       0.0574
      9 N12        14.0729   12.8080    9.1101 N.pl3       1 C03      -0.2466
     10 C13        10.6509   12.3093    8.0247 C.2         1 C03       0.0368
     11 C14        13.0205   10.5118    9.0258 C.3         1 C03      -0.0027
     12 C18        15.2840   12.3167    9.7482 C.3         1 C03       0.0846
     13 O19        14.6022   17.6135    8.2570 O.3         1 C03      -0.2340
     14 C20        14.0296   18.8179    8.8079 C.3         1 C03       0.5447
     15 F21        15.0550   19.7237    8.9401 F           1 C03      -0.1402
     16 F22        13.4722   18.6383   10.0584 F           1 C03      -0.1402
     17 F23        13.0958   19.3588    7.9554 F           1 C03      -0.1402
     18 C24        16.3604   13.2729   10.1400 C.ar        1 C03      -0.0091
     19 C27        17.5900   13.2533    9.4297 C.ar        1 C03      -0.0287
     20 C28        18.6241   14.1663    9.7129 C.ar        1 C03       0.0876
     21 C29        18.4339   15.0993   10.7524 C.ar        1 C03      -0.0391
     22 C30        17.2387   15.1197   11.4955 C.ar        1 C03      -0.0631
     23 C31        16.2039   14.2100   11.1975 C.ar        1 C03       0.0319
     24 CL1        14.7942   14.3051   12.1412 Cl          1 C03      -0.0872
     25 O36        19.8377   14.1856    9.0658 O.3         1 C03      -0.3024
     26 C37        19.9895   13.9313    7.6465 C.3         1 C03       0.1302
     27 C38        19.0855   14.8211    6.7487 C.3         1 C03      -0.0222
     28 C42        19.8799   12.4825    7.3162 C.2         1 C03       0.0683
     29 O44        20.0046   12.0411    6.0331 O.co2       1 C03      -0.5660
     30 O45        19.8861   11.5516    8.3033 O.co2       1 C03      -0.5660
     31 N46         9.9595   11.4354    8.7859 N.2         1 C03      -0.1679
     32 O47         8.7338   11.3004    8.3572 O.3         1 C03      -0.1876
     33 C48         8.5723   12.0928    7.2718 C.ar        1 C03       0.1433
     34 C49         9.7832   12.7314    7.0176 C.ar        1 C03       0.0134
     35 C50         7.4332   12.3358    6.4861 C.ar        1 C03       0.0032
     36 C51         7.5232   13.2524    5.4151 C.ar        1 C03       0.0851
     37 C52         8.7757   13.8426    5.1033 C.ar        1 C03      -0.0395
     38 C53         9.9088   13.5969    5.9117 C.ar        1 C03      -0.0670
     39 O57         6.3969   13.5099    4.6816 O.3         1 C03      -0.3234
     40 C58         5.9702   14.8819    4.7499 C.3         1 C03       0.0592
     41 H1         11.9845   17.3424    7.6740 H           1 C03       0.0459
     42 H2         10.7368   15.2610    7.7210 H           1 C03       0.0504
     43 H3         15.4550   15.3001    8.8451 H           1 C03       0.0444
     44 H4         12.0901   10.0544    8.6979 H           1 C03       0.0449
     45 H5         13.1749   10.2593   10.0745 H           1 C03       0.0449
     46 H6         13.8319   10.0761    8.4405 H           1 C03       0.0449
     47 H7         15.6929   11.5451    9.0935 H           1 C03       0.0764
     48 H8         15.0086   11.8017   10.6756 H           1 C03       0.0764
     49 H9         17.7289   12.5724    8.6812 H           1 C03       0.0480
     50 H10        19.1652   15.7763   10.9714 H           1 C03       0.0487
     51 H11        17.1307   15.8094   12.2431 H           1 C03       0.0578
     52 H12        21.0216   14.1984    7.4150 H           1 C03       0.0818
     53 H13        19.3347   14.6759    5.6907 H           1 C03       0.0276
     54 H14        19.2527   15.8683    7.0003 H           1 C03       0.0276
     55 H15        18.0273   14.5827    6.8999 H           1 C03       0.0276
     56 H16         6.5464   11.8810    6.7147 H           1 C03       0.0476
     57 H17         8.8572   14.4775    4.3066 H           1 C03       0.0490
     58 H18        10.8067   14.0350    5.6878 H           1 C03       0.0582
     59 H19         5.0221   14.9711    4.2201 H           1 C03       0.0578
     60 H20         6.6926   15.5467    4.2704 H           1 C03       0.0578
     61 H21         5.8090   15.2036    5.7836 H           1 C03       0.0578
@<TRIPOS>BOND
     1     1     2  ar
     2     1     6  ar
     3     2     3  ar
     4     3     4  ar
     5     3     7   1
     6     4     5  ar
     7     4     9   1
     8     5     6  ar
     9     6    13   1
    10     7     8   2
    11     7    10   1
    12     8     9   1
    13     8    11   1
    14     9    12   1
    15    10    31   2
    16    10    34   1
    17    12    18   1
    18    13    14   1
    19    14    15   1
    20    14    16   1
    21    14    17   1
    22    18    19  ar
    23    18    23  ar
    24    19    20  ar
    25    20    21  ar
    26    20    25   1
    27    21    22  ar
    28    22    23  ar
    29    23    24   1
    30    25    26   1
    31    26    27   1
    32    26    28   1
    33    28    29  ar
    34    28    30  ar
    35    31    32   1
    36    32    33   1
    37    33    34  ar
    38    33    35  ar
    39    34    38  ar
    40    35    36  ar
    41    36    37  ar
    42    36    39   1
    43    37    38  ar
    44    39    40   1
    45     1    41   1
    46     2    42   1
    47     5    43   1
    48    11    44   1
    49    11    45   1
    50    11    46   1
    51    12    47   1
    52    12    48   1
    53    19    49   1
    54    21    50   1
    55    22    51   1
    56    26    52   1
    57    27    53   1
    58    27    54   1
    59    27    55   1
    60    35    56   1
    61    37    57   1
    62    38    58   1
    63    40    59   1
    64    40    60   1
    65    40    61   1
@<TRIPOS>SUBSTRUCTURE
     1  C03      1

