@<TRIPOS>MOLECULE
2p4y_ligand_017
    61    65
SMALL
GAST_HUCK
****
This file was generated by PARSER (from files_GN.cpp)

@<TRIPOS>ATOM
      1 C1         10.7654    1.8816   14.2840 C.ar        1 C03      -0.0494
      2 C2         11.0953    2.6893   13.1799 C.ar        1 C03      -0.0824
      3 C3         10.1901    3.6866   12.7730 C.ar        1 C03      -0.0320
      4 C4          8.9873    3.9079   13.4470 C.ar        1 C03       0.0592
      5 C5          8.6667    3.1030   14.5650 C.ar        1 C03      -0.0175
      6 C6          9.5596    2.0915   14.9877 C.ar        1 C03       0.0845
      7 C10        10.2334    4.5795   11.7135 C.2         1 C03      -0.0105
      8 C11         9.0639    5.3500   11.7794 C.2         1 C03       0.0574
      9 N12         8.3063    4.9163   12.8358 N.pl3       1 C03      -0.2466
     10 C13        11.2540    4.6627   10.7531 C.2         1 C03       0.0368
     11 C14         8.8247    6.5057   10.8743 C.3         1 C03      -0.0027
     12 C18         7.0483    5.4085   13.3636 C.3         1 C03       0.0846
     13 O19         9.2268    1.2417   16.0099 O.3         1 C03      -0.2340
     14 C20         9.5784    1.6832   17.3358 C.3         1 C03       0.5447
     15 F21         9.2986    0.6493   18.1929 F           1 C03      -0.1402
     16 F22         8.8261    2.7631   17.7330 F           1 C03      -0.1402
     17 F23        10.9171    1.9771   17.4753 F           1 C03      -0.1402
     18 C24         6.2178    6.3094   12.5109 C.ar        1 C03      -0.0091
     19 C27         5.6154    5.7511   11.3528 C.ar        1 C03      -0.0287
     20 C28         4.8236    6.5249   10.4880 C.ar        1 C03       0.0876
     21 C29         4.5700    7.8724   10.8160 C.ar        1 C03      -0.0391
     22 C30         5.1575    8.4491   11.9540 C.ar        1 C03      -0.0631
     23 C31         5.9827    7.6801   12.8007 C.ar        1 C03       0.0319
     24 CL1         6.6769    8.5011   14.1180 Cl          1 C03      -0.0872
     25 O36         4.2524    5.9259    9.3911 O.3         1 C03      -0.3024
     26 C37         4.5425    6.4941    8.0940 C.3         1 C03       0.1302
     27 C38         3.2417    7.0809    7.4944 C.3         1 C03      -0.0222
     28 C42         5.1165    5.4354    7.2438 C.2         1 C03       0.0683
     29 O44         6.4145    5.1081    7.4270 O.co2       1 C03      -0.5660
     30 O45         4.3185    4.5061    6.6712 O.co2       1 C03      -0.5660
     31 N46        11.0922    4.3934    9.4442 N.2         1 C03      -0.1679
     32 O47        12.2077    4.6198    8.7978 O.3         1 C03      -0.1876
     33 C48        13.1373    5.0573    9.6758 C.ar        1 C03       0.1433
     34 C49        12.5581    5.1062   10.9381 C.ar        1 C03       0.0134
     35 C50        14.4755    5.4480    9.4834 C.ar        1 C03       0.0032
     36 C51        15.2172    5.9130   10.5921 C.ar        1 C03       0.0851
     37 C52        14.6173    5.9662   11.8727 C.ar        1 C03      -0.0395
     38 C53        13.2736    5.5714   12.0526 C.ar        1 C03      -0.0670
     39 O57        16.5342    6.2550   10.4385 O.3         1 C03      -0.3234
     40 C58        16.7351    7.6382   10.1009 C.3         1 C03       0.0592
     41 H1         11.4024    1.1338   14.5722 H           1 C03       0.0459
     42 H2         11.9706    2.5374   12.6773 H           1 C03       0.0504
     43 H3          7.7858    3.2307   15.0622 H           1 C03       0.0444
     44 H4          9.6971    6.7456   10.2635 H           1 C03       0.0449
     45 H5          8.6028    7.3934   11.4596 H           1 C03       0.0449
     46 H6          7.9962    6.3041   10.1948 H           1 C03       0.0449
     47 H7          7.2748    5.8744   14.3219 H           1 C03       0.0764
     48 H8          6.4076    4.5537   13.5987 H           1 C03       0.0764
     49 H9          5.7681    4.7665   11.1266 H           1 C03       0.0480
     50 H10         3.9699    8.4459   10.2227 H           1 C03       0.0487
     51 H11         4.9929    9.4400   12.1491 H           1 C03       0.0578
     52 H12         5.2803    7.3025    8.1384 H           1 C03       0.0818
     53 H13         3.4203    7.4657    6.4871 H           1 C03       0.0276
     54 H14         2.8780    7.9016    8.1144 H           1 C03       0.0276
     55 H15         2.4628    6.3174    7.4491 H           1 C03       0.0276
     56 H16        14.8967    5.3991    8.5554 H           1 C03       0.0476
     57 H17        15.1571    6.2926   12.6767 H           1 C03       0.0490
     58 H18        12.8336    5.6258   12.9733 H           1 C03       0.0582
     59 H19        17.8060    7.8054    9.9799 H           1 C03       0.0578
     60 H20        16.3758    8.2984   10.8952 H           1 C03       0.0578
     61 H21        16.2428    7.8960    9.1592 H           1 C03       0.0578
@<TRIPOS>BOND
     1     1     2  ar
     2     1     6  ar
     3     2     3  ar
     4     3     4  ar
     5     3     7   1
     6     4     5  ar
     7     4     9   1
     8     5     6  ar
     9     6    13   1
    10     7     8   2
    11     7    10   1
    12     8     9   1
    13     8    11   1
    14     9    12   1
    15    10    31   2
    16    10    34   1
    17    12    18   1
    18    13    14   1
    19    14    15   1
    20    14    16   1
    21    14    17   1
    22    18    19  ar
    23    18    23  ar
    24    19    20  ar
    25    20    21  ar
    26    20    25   1
    27    21    22  ar
    28    22    23  ar
    29    23    24   1
    30    25    26   1
    31    26    27   1
    32    26    28   1
    33    28    29  ar
    34    28    30  ar
    35    31    32   1
    36    32    33   1
    37    33    34  ar
    38    33    35  ar
    39    34    38  ar
    40    35    36  ar
    41    36    37  ar
    42    36    39   1
    43    37    38  ar
    44    39    40   1
    45     1    41   1
    46     2    42   1
    47     5    43   1
    48    11    44   1
    49    11    45   1
    50    11    46   1
    51    12    47   1
    52    12    48   1
    53    19    49   1
    54    21    50   1
    55    22    51   1
    56    26    52   1
    57    27    53   1
    58    27    54   1
    59    27    55   1
    60    35    56   1
    61    37    57   1
    62    38    58   1
    63    40    59   1
    64    40    60   1
    65    40    61   1
@<TRIPOS>SUBSTRUCTURE
     1  C03      1

