@<TRIPOS>MOLECULE
2p4y_ligand_087
    61    65
SMALL
GAST_HUCK
****
This file was generated by PARSER (from files_GN.cpp)

@<TRIPOS>ATOM
      1 C1         13.2506   12.4244    9.2611 C.ar        1 C03      -0.0494
      2 C2         12.5848   11.1922    9.3812 C.ar        1 C03      -0.0824
      3 C3         13.3366   10.0102    9.5197 C.ar        1 C03      -0.0320
      4 C4         14.7331   10.0517    9.5149 C.ar        1 C03       0.0592
      5 C5         15.4041   11.2854    9.3667 C.ar        1 C03      -0.0175
      6 C6         14.6570   12.4801    9.2718 C.ar        1 C03       0.0845
      7 C10        12.9575    8.6739    9.6543 C.2         1 C03      -0.0105
      8 C11        14.1523    7.9354    9.5983 C.2         1 C03       0.0574
      9 N12        15.2180    8.7904    9.6153 N.pl3       1 C03      -0.2466
     10 C13        11.6255    8.1938    9.7560 C.2         1 C03       0.0368
     11 C14        14.2205    6.4727    9.3510 C.3         1 C03      -0.0027
     12 C18        16.6322    8.4781    9.6133 C.3         1 C03       0.0846
     13 O19        15.2524   13.7047    9.1327 O.3         1 C03      -0.2340
     14 C20        15.9621   14.2049   10.2836 C.3         1 C03       0.5447
     15 F21        16.1433   15.5515   10.0934 F           1 C03      -0.1402
     16 F22        17.2068   13.6315   10.3782 F           1 C03      -0.1402
     17 F23        15.2879   14.0513   11.4766 F           1 C03      -0.1402
     18 C24        17.0405    7.2665   10.3800 C.ar        1 C03      -0.0091
     19 C27        16.6406    7.1639   11.7359 C.ar        1 C03      -0.0287
     20 C28        16.9205    6.0115   12.4968 C.ar        1 C03       0.0876
     21 C29        17.6730    4.9732   11.9225 C.ar        1 C03      -0.0391
     22 C30        18.1174    5.0746   10.5938 C.ar        1 C03      -0.0631
     23 C31        17.8121    6.2117    9.8178 C.ar        1 C03       0.0319
     24 CL1        18.4413    6.2307    8.2394 Cl          1 C03      -0.0872
     25 O36        16.4899    5.8933   13.7924 O.3         1 C03      -0.3024
     26 C37        15.1126    5.4766   13.9434 C.3         1 C03       0.1302
     27 C38        14.7048    5.7048   15.4154 C.3         1 C03      -0.0222
     28 C42        14.9075    4.0592   13.5712 C.2         1 C03       0.0683
     29 O44        14.0784    3.7245   12.5583 O.co2       1 C03      -0.5660
     30 O45        15.6040    3.0780   14.1873 O.co2       1 C03      -0.5660
     31 N46        10.5763    8.7559    9.1236 N.2         1 C03      -0.1679
     32 O47         9.4616    8.1305    9.4016 O.3         1 C03      -0.1876
     33 C48         9.7446    7.1212   10.2522 C.ar        1 C03       0.1433
     34 C49        11.1108    7.1381   10.5119 C.ar        1 C03       0.0134
     35 C50         8.8880    6.1779   10.8412 C.ar        1 C03       0.0032
     36 C51         9.4334    5.2278   11.7358 C.ar        1 C03       0.0851
     37 C52        10.8214    5.2493   12.0178 C.ar        1 C03      -0.0395
     38 C53        11.6636    6.2054   11.4123 C.ar        1 C03      -0.0670
     39 O57         8.6122    4.2633   12.2590 O.3         1 C03      -0.3234
     40 C58         8.2886    4.4493   13.6463 C.3         1 C03       0.0592
     41 H1         12.7036   13.2822    9.1627 H           1 C03       0.0459
     42 H2         11.5683   11.1700    9.3388 H           1 C03       0.0504
     43 H3         16.4218   11.3288    9.3218 H           1 C03       0.0444
     44 H4         13.2478    6.0712    9.0409 H           1 C03       0.0449
     45 H5         14.5458    5.9474   10.2489 H           1 C03       0.0449
     46 H6         14.9417    6.2738    8.5522 H           1 C03       0.0449
     47 H7         17.1954    9.2888   10.0746 H           1 C03       0.0764
     48 H8         16.9446    8.4374    8.5708 H           1 C03       0.0764
     49 H9         16.1097    7.9217   12.1745 H           1 C03       0.0480
     50 H10        17.8947    4.1380   12.4682 H           1 C03       0.0487
     51 H11        18.6698    4.3125   10.1906 H           1 C03       0.0578
     52 H12        14.4583    6.1090   13.3349 H           1 C03       0.0818
     53 H13        13.6525    5.4509   15.5677 H           1 C03       0.0276
     54 H14        14.8451    6.7549   15.6702 H           1 C03       0.0276
     55 H15        15.3166    5.1014   16.0900 H           1 C03       0.0276
     56 H16         7.8885    6.1749   10.6232 H           1 C03       0.0476
     57 H17        11.2226    4.5689   12.6667 H           1 C03       0.0490
     58 H18        12.6556    6.2219   11.6349 H           1 C03       0.0582
     59 H19         7.5904    3.6668   13.9446 H           1 C03       0.0578
     60 H20         7.8117    5.4163   13.8214 H           1 C03       0.0578
     61 H21         9.1810    4.3630   14.2679 H           1 C03       0.0578
@<TRIPOS>BOND
     1     1     2  ar
     2     1     6  ar
     3     2     3  ar
     4     3     4  ar
     5     3     7   1
     6     4     5  ar
     7     4     9   1
     8     5     6  ar
     9     6    13   1
    10     7     8   2
    11     7    10   1
    12     8     9   1
    13     8    11   1
    14     9    12   1
    15    10    31   2
    16    10    34   1
    17    12    18   1
    18    13    14   1
    19    14    15   1
    20    14    16   1
    21    14    17   1
    22    18    19  ar
    23    18    23  ar
    24    19    20  ar
    25    20    21  ar
    26    20    25   1
    27    21    22  ar
    28    22    23  ar
    29    23    24   1
    30    25    26   1
    31    26    27   1
    32    26    28   1
    33    28    29  ar
    34    28    30  ar
    35    31    32   1
    36    32    33   1
    37    33    34  ar
    38    33    35  ar
    39    34    38  ar
    40    35    36  ar
    41    36    37  ar
    42    36    39   1
    43    37    38  ar
    44    39    40   1
    45     1    41   1
    46     2    42   1
    47     5    43   1
    48    11    44   1
    49    11    45   1
    50    11    46   1
    51    12    47   1
    52    12    48   1
    53    19    49   1
    54    21    50   1
    55    22    51   1
    56    26    52   1
    57    27    53   1
    58    27    54   1
    59    27    55   1
    60    35    56   1
    61    37    57   1
    62    38    58   1
    63    40    59   1
    64    40    60   1
    65    40    61   1
@<TRIPOS>SUBSTRUCTURE
     1  C03      1

