@<TRIPOS>MOLECULE
2p4y_ligand_007
    61    65
SMALL
GAST_HUCK
****
This file was generated by PARSER (from files_GN.cpp)

@<TRIPOS>ATOM
      1 C1         11.3652    5.6037    9.0930 C.ar        1 C03      -0.0494
      2 C2         10.0348    5.9473    9.3949 C.ar        1 C03      -0.0824
      3 C3          9.5923    5.9225   10.7381 C.ar        1 C03      -0.0320
      4 C4         10.4857    5.6669   11.7869 C.ar        1 C03       0.0592
      5 C5         11.8239    5.3326   11.4745 C.ar        1 C03      -0.0175
      6 C6         12.2580    5.2876   10.1389 C.ar        1 C03       0.0845
      7 C10         8.3363    6.1514   11.3021 C.2         1 C03      -0.0105
      8 C11         8.5058    6.0058   12.6874 C.2         1 C03       0.0574
      9 N12         9.8377    5.7841   12.9700 N.pl3       1 C03      -0.2466
     10 C13         7.1628    6.4091   10.5379 C.2         1 C03       0.0368
     11 C14         7.4204    5.9753   13.6965 C.3         1 C03      -0.0027
     12 C18        10.4667    5.8654   14.2762 C.3         1 C03       0.0846
     13 O19        13.5114    4.8329    9.8462 O.3         1 C03      -0.2340
     14 C20        14.5503    5.8268    9.7873 C.3         1 C03       0.5447
     15 F21        15.7338    5.1450    9.5430 F           1 C03      -0.1402
     16 F22        14.7103    6.4980   10.9816 F           1 C03      -0.1402
     17 F23        14.3626    6.7289    8.7524 F           1 C03      -0.1402
     18 C24        11.0378    4.6233   14.8826 C.ar        1 C03      -0.0091
     19 C27        10.1733    3.5068   15.0420 C.ar        1 C03      -0.0287
     20 C28        10.5844    2.3413   15.7259 C.ar        1 C03       0.0876
     21 C29        11.9164    2.2537   16.1735 C.ar        1 C03      -0.0391
     22 C30        12.7919    3.3395   16.0400 C.ar        1 C03      -0.0631
     23 C31        12.3591    4.5264   15.4155 C.ar        1 C03       0.0319
     24 CL1        13.5242    5.7606   15.2942 Cl          1 C03      -0.0872
     25 O36         9.7019    1.3081   15.9252 O.3         1 C03      -0.3024
     26 C37         9.2342    1.1449   17.2828 C.3         1 C03       0.1302
     27 C38        10.3257    0.4467   18.1583 C.3         1 C03      -0.0222
     28 C42         7.9781    0.3762   17.1861 C.2         1 C03       0.0683
     29 O44         7.4744   -0.2591   18.2713 O.co2       1 C03      -0.5660
     30 O45         7.0896    0.6859   16.2066 O.co2       1 C03      -0.5660
     31 N46         6.9946    5.8864    9.2951 N.2         1 C03      -0.1679
     32 O47         5.8436    6.2218    8.7791 O.3         1 C03      -0.1876
     33 C48         5.2058    7.0058    9.6689 C.ar        1 C03       0.1433
     34 C49         6.0136    7.1691   10.7980 C.ar        1 C03       0.0134
     35 C50         3.9340    7.5886    9.5702 C.ar        1 C03       0.0032
     36 C51         3.4646    8.3966   10.6359 C.ar        1 C03       0.0851
     37 C52         4.2837    8.5801   11.7760 C.ar        1 C03      -0.0395
     38 C53         5.5704    7.9963   11.8499 C.ar        1 C03      -0.0670
     39 O57         2.1881    8.9019   10.6250 O.3         1 C03      -0.3234
     40 C58         1.9170    9.8694    9.6013 C.3         1 C03       0.0592
     41 H1         11.6688    5.5756    8.1163 H           1 C03       0.0459
     42 H2          9.3948    6.1892    8.6318 H           1 C03       0.0504
     43 H3         12.4804    5.0659   12.1973 H           1 C03       0.0444
     44 H4          6.4324    5.9153   13.2452 H           1 C03       0.0449
     45 H5          7.4857    6.8548   14.3333 H           1 C03       0.0449
     46 H6          7.5276    5.0894   14.3219 H           1 C03       0.0449
     47 H7          9.7665    6.2759   15.0114 H           1 C03       0.0764
     48 H8         11.2374    6.6398   14.1888 H           1 C03       0.0764
     49 H9          9.2067    3.5641   14.7094 H           1 C03       0.0480
     50 H10        12.2540    1.3967   16.6244 H           1 C03       0.0487
     51 H11        13.7449    3.2553   16.4014 H           1 C03       0.0578
     52 H12         8.9605    2.1088   17.7362 H           1 C03       0.0818
     53 H13         9.9105    0.0537   19.0823 H           1 C03       0.0276
     54 H14        11.0939    1.1571   18.4362 H           1 C03       0.0276
     55 H15        10.7932   -0.3807   17.6204 H           1 C03       0.0276
     56 H16         3.3587    7.4367    8.7386 H           1 C03       0.0476
     57 H17         3.9590    9.1572   12.5470 H           1 C03       0.0490
     58 H18         6.1568    8.1495   12.6644 H           1 C03       0.0582
     59 H19         0.9009   10.2242    9.7291 H           1 C03       0.0578
     60 H20         2.0070    9.4041    8.6109 H           1 C03       0.0578
     61 H21         2.5899   10.7281    9.6759 H           1 C03       0.0578
@<TRIPOS>BOND
     1     1     2  ar
     2     1     6  ar
     3     2     3  ar
     4     3     4  ar
     5     3     7   1
     6     4     5  ar
     7     4     9   1
     8     5     6  ar
     9     6    13   1
    10     7     8   2
    11     7    10   1
    12     8     9   1
    13     8    11   1
    14     9    12   1
    15    10    31   2
    16    10    34   1
    17    12    18   1
    18    13    14   1
    19    14    15   1
    20    14    16   1
    21    14    17   1
    22    18    19  ar
    23    18    23  ar
    24    19    20  ar
    25    20    21  ar
    26    20    25   1
    27    21    22  ar
    28    22    23  ar
    29    23    24   1
    30    25    26   1
    31    26    27   1
    32    26    28   1
    33    28    29  ar
    34    28    30  ar
    35    31    32   1
    36    32    33   1
    37    33    34  ar
    38    33    35  ar
    39    34    38  ar
    40    35    36  ar
    41    36    37  ar
    42    36    39   1
    43    37    38  ar
    44    39    40   1
    45     1    41   1
    46     2    42   1
    47     5    43   1
    48    11    44   1
    49    11    45   1
    50    11    46   1
    51    12    47   1
    52    12    48   1
    53    19    49   1
    54    21    50   1
    55    22    51   1
    56    26    52   1
    57    27    53   1
    58    27    54   1
    59    27    55   1
    60    35    56   1
    61    37    57   1
    62    38    58   1
    63    40    59   1
    64    40    60   1
    65    40    61   1
@<TRIPOS>SUBSTRUCTURE
     1  C03      1

