@<TRIPOS>MOLECULE
2p4y_ligand_091
    61    65
SMALL
GAST_HUCK
****
This file was generated by PARSER (from files_GN.cpp)

@<TRIPOS>ATOM
      1 C1         11.7590    8.2777    9.7720 C.ar        1 C03      -0.0494
      2 C2         10.9194    9.2433    9.1817 C.ar        1 C03      -0.0824
      3 C3         11.4679   10.4865    8.8082 C.ar        1 C03      -0.0320
      4 C4         12.8269   10.7728    8.9871 C.ar        1 C03       0.0592
      5 C5         13.6715    9.7882    9.5490 C.ar        1 C03      -0.0175
      6 C6         13.1409    8.5382    9.9403 C.ar        1 C03       0.0845
      7 C10        10.8779   11.6028    8.2342 C.2         1 C03      -0.0105
      8 C11        11.8988   12.5429    8.0662 C.2         1 C03       0.0574
      9 N12        13.0728   12.0301    8.5351 N.pl3       1 C03      -0.2466
     10 C13         9.5236   11.7579    7.8814 C.2         1 C03       0.0368
     11 C14        11.7071   13.8817    7.4652 C.3         1 C03      -0.0027
     12 C18        14.3599   12.6902    8.5056 C.3         1 C03       0.0846
     13 O19        13.9702    7.6426   10.5600 O.3         1 C03      -0.2340
     14 C20        14.0001    6.3044   10.0262 C.3         1 C03       0.5447
     15 F21        15.0598    5.6517   10.6071 F           1 C03      -0.1402
     16 F22        14.2037    6.2647    8.6669 F           1 C03      -0.1402
     17 F23        12.8508    5.6178   10.3393 F           1 C03      -0.1402
     18 C24        14.3577   14.0408    9.1345 C.ar        1 C03      -0.0091
     19 C27        14.4988   15.1902    8.3142 C.ar        1 C03      -0.0287
     20 C28        14.3882   16.4904    8.8442 C.ar        1 C03       0.0876
     21 C29        14.2186   16.6538   10.2310 C.ar        1 C03      -0.0391
     22 C30        14.1271   15.5303   11.0712 C.ar        1 C03      -0.0631
     23 C31        14.1880   14.2277   10.5335 C.ar        1 C03       0.0319
     24 CL1        14.0627   12.9338   11.6254 Cl          1 C03      -0.0872
     25 O36        14.5403   17.5938    8.0343 O.3         1 C03      -0.3024
     26 C37        13.3194   18.2411    7.5924 C.3         1 C03       0.1302
     27 C38        12.6255   17.4269    6.4718 C.3         1 C03      -0.0222
     28 C42        13.6513   19.5945    7.0948 C.2         1 C03       0.0683
     29 O44        12.6507   20.4512    6.7759 O.co2       1 C03      -0.5660
     30 O45        14.8700   19.8563    6.5638 O.co2       1 C03      -0.5660
     31 N46         9.0095   11.5227    6.6579 N.2         1 C03      -0.1679
     32 O47         7.7431   11.8566    6.6195 O.3         1 C03      -0.1876
     33 C48         7.3969   12.3487    7.8287 C.ar        1 C03       0.1433
     34 C49         8.5118   12.3066    8.6586 C.ar        1 C03       0.0134
     35 C50         6.1672   12.8414    8.2885 C.ar        1 C03       0.0032
     36 C51         6.0733   13.2859    9.6269 C.ar        1 C03       0.0851
     37 C52         7.2182   13.2741   10.4617 C.ar        1 C03      -0.0395
     38 C53         8.4495   12.7823    9.9813 C.ar        1 C03      -0.0670
     39 O57         4.8887   13.7768   10.1029 O.3         1 C03      -0.3234
     40 C58         3.9351   12.7466   10.4216 C.3         1 C03       0.0592
     41 H1         11.3602    7.3836   10.0771 H           1 C03       0.0459
     42 H2          9.9211    9.0520    9.0613 H           1 C03       0.0504
     43 H3         14.6675    9.9625    9.6821 H           1 C03       0.0444
     44 H4         10.7211   13.9934    7.0077 H           1 C03       0.0449
     45 H5         12.4575   14.0483    6.6900 H           1 C03       0.0449
     46 H6         11.8084   14.6404    8.2430 H           1 C03       0.0449
     47 H7         14.6582   12.7375    7.4572 H           1 C03       0.0764
     48 H8         15.1289   12.1062    9.0078 H           1 C03       0.0764
     49 H9         14.6655   15.0903    7.3078 H           1 C03       0.0480
     50 H10        14.1702   17.5913   10.6329 H           1 C03       0.0487
     51 H11        14.0070   15.6694   12.0774 H           1 C03       0.0578
     52 H12        12.6203   18.3754    8.4251 H           1 C03       0.0818
     53 H13        11.7180   17.9354    6.1334 H           1 C03       0.0276
     54 H14        12.3429   16.4409    6.8418 H           1 C03       0.0276
     55 H15        13.3003   17.2999    5.6181 H           1 C03       0.0276
     56 H16         5.3590   12.8643    7.6655 H           1 C03       0.0476
     57 H17         7.1535   13.6155   11.4214 H           1 C03       0.0490
     58 H18         9.2751   12.7595   10.5840 H           1 C03       0.0582
     59 H19         3.0320   13.2295   10.7953 H           1 C03       0.0578
     60 H20         4.3152   12.0799   11.2008 H           1 C03       0.0578
     61 H21         3.6657   12.1592    9.5389 H           1 C03       0.0578
@<TRIPOS>BOND
     1     1     2  ar
     2     1     6  ar
     3     2     3  ar
     4     3     4  ar
     5     3     7   1
     6     4     5  ar
     7     4     9   1
     8     5     6  ar
     9     6    13   1
    10     7     8   2
    11     7    10   1
    12     8     9   1
    13     8    11   1
    14     9    12   1
    15    10    31   2
    16    10    34   1
    17    12    18   1
    18    13    14   1
    19    14    15   1
    20    14    16   1
    21    14    17   1
    22    18    19  ar
    23    18    23  ar
    24    19    20  ar
    25    20    21  ar
    26    20    25   1
    27    21    22  ar
    28    22    23  ar
    29    23    24   1
    30    25    26   1
    31    26    27   1
    32    26    28   1
    33    28    29  ar
    34    28    30  ar
    35    31    32   1
    36    32    33   1
    37    33    34  ar
    38    33    35  ar
    39    34    38  ar
    40    35    36  ar
    41    36    37  ar
    42    36    39   1
    43    37    38  ar
    44    39    40   1
    45     1    41   1
    46     2    42   1
    47     5    43   1
    48    11    44   1
    49    11    45   1
    50    11    46   1
    51    12    47   1
    52    12    48   1
    53    19    49   1
    54    21    50   1
    55    22    51   1
    56    26    52   1
    57    27    53   1
    58    27    54   1
    59    27    55   1
    60    35    56   1
    61    37    57   1
    62    38    58   1
    63    40    59   1
    64    40    60   1
    65    40    61   1
@<TRIPOS>SUBSTRUCTURE
     1  C03      1

