@<TRIPOS>MOLECULE
2p4y_ligand_030
    61    65
SMALL
GAST_HUCK
****
This file was generated by PARSER (from files_GN.cpp)

@<TRIPOS>ATOM
      1 C1         18.9693   11.5822    8.2808 C.ar        1 C03      -0.0494
      2 C2         17.7244   11.0635    8.6914 C.ar        1 C03      -0.0824
      3 C3         16.8934   11.8617    9.5013 C.ar        1 C03      -0.0320
      4 C4         17.2695   13.1499    9.8985 C.ar        1 C03       0.0592
      5 C5         18.5228   13.6598    9.4872 C.ar        1 C03      -0.0175
      6 C6         19.3607   12.8873    8.6579 C.ar        1 C03       0.0845
      7 C10        15.6461   11.6134   10.0571 C.2         1 C03      -0.0105
      8 C11        15.2987   12.7511   10.7945 C.2         1 C03       0.0574
      9 N12        16.2788   13.6834   10.6588 N.pl3       1 C03      -0.2466
     10 C13        14.8986   10.4330    9.8966 C.2         1 C03       0.0368
     11 C14        14.0723   12.8911   11.6194 C.3         1 C03      -0.0027
     12 C18        16.2889   15.0042   11.2489 C.3         1 C03       0.0846
     13 O19        20.5754   13.3851    8.2690 O.3         1 C03      -0.2340
     14 C20        20.5638   14.1350    7.0390 C.3         1 C03       0.5447
     15 F21        21.8444   14.5789    6.8259 F           1 C03      -0.1402
     16 F22        19.7482   15.2421    7.0939 F           1 C03      -0.1402
     17 F23        20.2126   13.3600    5.9588 F           1 C03      -0.1402
     18 C24        15.1408   15.9072   10.9156 C.ar        1 C03      -0.0091
     19 C27        14.6364   16.7349   11.9478 C.ar        1 C03      -0.0287
     20 C28        13.5736   17.6358   11.7235 C.ar        1 C03       0.0876
     21 C29        13.0149   17.7373   10.4388 C.ar        1 C03      -0.0391
     22 C30        13.5112   16.9414    9.3934 C.ar        1 C03      -0.0631
     23 C31        14.5716   16.0424    9.6132 C.ar        1 C03       0.0319
     24 CL1        15.0985   15.1861    8.2440 Cl          1 C03      -0.0872
     25 O36        13.1498   18.4589   12.7321 O.3         1 C03      -0.3024
     26 C37        12.2642   17.8582   13.7041 C.3         1 C03       0.1302
     27 C38        10.8102   17.7480   13.1861 C.3         1 C03      -0.0222
     28 C42        12.3085   18.6959   14.9238 C.2         1 C03       0.0683
     29 O44        12.4949   18.1319   16.1317 O.co2       1 C03      -0.5660
     30 O45        12.1704   20.0381   14.8439 O.co2       1 C03      -0.5660
     31 N46        13.8482   10.2963    9.0652 N.2         1 C03      -0.1679
     32 O47        13.3537    9.0847    9.1614 O.3         1 C03      -0.1876
     33 C48        14.0681    8.3951   10.0786 C.ar        1 C03       0.1433
     34 C49        15.0676    9.2303   10.5625 C.ar        1 C03       0.0134
     35 C50        13.9258    7.0807   10.5516 C.ar        1 C03       0.0032
     36 C51        14.8084    6.6200   11.5571 C.ar        1 C03       0.0851
     37 C52        15.8382    7.4681   12.0337 C.ar        1 C03      -0.0395
     38 C53        15.9742    8.7823   11.5402 C.ar        1 C03      -0.0670
     39 O57        14.6939    5.3427   12.0281 O.3         1 C03      -0.3234
     40 C58        13.9526    5.2536   13.2583 C.3         1 C03       0.0592
     41 H1         19.5887   11.0108    7.6987 H           1 C03       0.0459
     42 H2         17.4378   10.1270    8.4104 H           1 C03       0.0504
     43 H3         18.8364   14.5822    9.7830 H           1 C03       0.0444
     44 H4         13.4808   11.9775   11.6310 H           1 C03       0.0449
     45 H5         13.4458   13.6944   11.2318 H           1 C03       0.0449
     46 H6         14.3630   13.1250   12.6453 H           1 C03       0.0449
     47 H7         17.1807   15.5607   10.9713 H           1 C03       0.0764
     48 H8         16.3545   14.8516   12.3286 H           1 C03       0.0764
     49 H9         15.0485   16.7061   12.8830 H           1 C03       0.0480
     50 H10        12.2578   18.3988   10.2565 H           1 C03       0.0487
     51 H11        13.0930   17.0370    8.4638 H           1 C03       0.0578
     52 H12        12.6136   16.8602   13.9860 H           1 C03       0.0818
     53 H13        10.1535   17.3607   13.9711 H           1 C03       0.0276
     54 H14        10.7657   17.0601   12.3406 H           1 C03       0.0276
     55 H15        10.4399   18.7226   12.8644 H           1 C03       0.0276
     56 H16        13.1901    6.4752   10.1823 H           1 C03       0.0476
     57 H17        16.4891    7.1337   12.7486 H           1 C03       0.0490
     58 H18        16.7127    9.3959   11.8818 H           1 C03       0.0582
     59 H19        13.9316    4.2082   13.5661 H           1 C03       0.0578
     60 H20        12.9231    5.5947   13.1258 H           1 C03       0.0578
     61 H21        14.4273    5.8305   14.0578 H           1 C03       0.0578
@<TRIPOS>BOND
     1     1     2  ar
     2     1     6  ar
     3     2     3  ar
     4     3     4  ar
     5     3     7   1
     6     4     5  ar
     7     4     9   1
     8     5     6  ar
     9     6    13   1
    10     7     8   2
    11     7    10   1
    12     8     9   1
    13     8    11   1
    14     9    12   1
    15    10    31   2
    16    10    34   1
    17    12    18   1
    18    13    14   1
    19    14    15   1
    20    14    16   1
    21    14    17   1
    22    18    19  ar
    23    18    23  ar
    24    19    20  ar
    25    20    21  ar
    26    20    25   1
    27    21    22  ar
    28    22    23  ar
    29    23    24   1
    30    25    26   1
    31    26    27   1
    32    26    28   1
    33    28    29  ar
    34    28    30  ar
    35    31    32   1
    36    32    33   1
    37    33    34  ar
    38    33    35  ar
    39    34    38  ar
    40    35    36  ar
    41    36    37  ar
    42    36    39   1
    43    37    38  ar
    44    39    40   1
    45     1    41   1
    46     2    42   1
    47     5    43   1
    48    11    44   1
    49    11    45   1
    50    11    46   1
    51    12    47   1
    52    12    48   1
    53    19    49   1
    54    21    50   1
    55    22    51   1
    56    26    52   1
    57    27    53   1
    58    27    54   1
    59    27    55   1
    60    35    56   1
    61    37    57   1
    62    38    58   1
    63    40    59   1
    64    40    60   1
    65    40    61   1
@<TRIPOS>SUBSTRUCTURE
     1  C03      1

