@<TRIPOS>MOLECULE
2p4y_ligand_047
    61    65
SMALL
GAST_HUCK
****
This file was generated by PARSER (from files_GN.cpp)

@<TRIPOS>ATOM
      1 C1         10.6706    6.9168   10.1514 C.ar        1 C03      -0.0494
      2 C2          9.3377    6.9683   10.5939 C.ar        1 C03      -0.0824
      3 C3          8.8334    5.8925   11.3475 C.ar        1 C03      -0.0320
      4 C4          9.6157    4.7832   11.6747 C.ar        1 C03       0.0592
      5 C5         10.9496    4.7300   11.2085 C.ar        1 C03      -0.0175
      6 C6         11.4881    5.8086   10.4691 C.ar        1 C03       0.0845
      7 C10         7.5577    5.6581   11.8306 C.2         1 C03      -0.0105
      8 C11         7.5849    4.4037   12.4505 C.2         1 C03       0.0574
      9 N12         8.8487    3.8929   12.3657 N.pl3       1 C03      -0.2466
     10 C13         6.4750    6.5358   11.6754 C.2         1 C03       0.0368
     11 C14         6.3965    3.7667   13.0649 C.3         1 C03      -0.0027
     12 C18         9.2683    2.5754   12.8104 C.3         1 C03       0.0846
     13 O19        12.7558    5.6977    9.9616 O.3         1 C03      -0.2340
     14 C20        13.7648    6.5139   10.5879 C.3         1 C03       0.5447
     15 F21        14.9663    6.1792   10.0170 F           1 C03      -0.1402
     16 F22        13.8666    6.2870   11.9469 F           1 C03      -0.1402
     17 F23        13.5662    7.8551   10.3588 F           1 C03      -0.1402
     18 C24         9.9883    2.5448   14.1264 C.ar        1 C03      -0.0091
     19 C27        11.3734    2.8495   14.1405 C.ar        1 C03      -0.0287
     20 C28        12.1573    2.7366   15.3026 C.ar        1 C03       0.0876
     21 C29        11.5479    2.3276   16.5014 C.ar        1 C03      -0.0391
     22 C30        10.1750    2.0297   16.5273 C.ar        1 C03      -0.0631
     23 C31         9.4028    2.1024   15.3477 C.ar        1 C03       0.0319
     24 CL1         7.8085    1.5388   15.4845 Cl          1 C03      -0.0872
     25 O36        13.5129    2.8905   15.1977 O.3         1 C03      -0.3024
     26 C37        14.1175    4.0333   15.8349 C.3         1 C03       0.1302
     27 C38        13.6406    5.3940   15.2631 C.3         1 C03      -0.0222
     28 C42        15.5732    3.8753   15.6459 C.2         1 C03       0.0683
     29 O44        16.4069    3.7544   16.7040 O.co2       1 C03      -0.5660
     30 O45        16.1042    3.8094   14.4036 O.co2       1 C03      -0.5660
     31 N46         5.6812    6.6155   10.5913 N.2         1 C03      -0.1679
     32 O47         4.8260    7.5995   10.7311 O.3         1 C03      -0.1876
     33 C48         5.0543    8.2070   11.9173 C.ar        1 C03       0.1433
     34 C49         6.1025    7.5483   12.5448 C.ar        1 C03       0.0134
     35 C50         4.4359    9.3166   12.5159 C.ar        1 C03       0.0032
     36 C51         4.9024    9.7592   13.7767 C.ar        1 C03       0.0851
     37 C52         5.9877    9.0965   14.4024 C.ar        1 C03      -0.0395
     38 C53         6.5811    7.9687   13.7992 C.ar        1 C03      -0.0670
     39 O57         4.3385   10.8625   14.3556 O.3         1 C03      -0.3234
     40 C58         3.3570   10.5430   15.3583 C.3         1 C03       0.0592
     41 H1         11.0372    7.6738    9.5685 H           1 C03       0.0459
     42 H2          8.7393    7.7543   10.3361 H           1 C03       0.0504
     43 H3         11.5213    3.9015   11.3669 H           1 C03       0.0444
     44 H4          5.4937    4.3647   12.9325 H           1 C03       0.0449
     45 H5          6.5702    3.6609   14.1332 H           1 C03       0.0449
     46 H6          6.2152    2.7859   12.6226 H           1 C03       0.0449
     47 H7          9.9148    2.1289   12.0499 H           1 C03       0.0764
     48 H8          8.4088    1.9044   12.8363 H           1 C03       0.0764
     49 H9         11.8515    3.1034   13.2742 H           1 C03       0.0480
     50 H10        12.1074    2.2074   17.3490 H           1 C03       0.0487
     51 H11         9.7544    1.7167   17.4079 H           1 C03       0.0578
     52 H12        13.9045    4.0159   16.9074 H           1 C03       0.0818
     53 H13        14.2593    6.2063   15.6489 H           1 C03       0.0276
     54 H14        12.6074    5.5787   15.5639 H           1 C03       0.0276
     55 H15        13.6940    5.3986   14.1673 H           1 C03       0.0276
     56 H16         3.6695    9.7977   12.0412 H           1 C03       0.0476
     57 H17         6.3385    9.4288   15.3016 H           1 C03       0.0490
     58 H18         7.3471    7.4727   14.2592 H           1 C03       0.0582
     59 H19         2.9469   11.4777   15.7403 H           1 C03       0.0578
     60 H20         3.8052   10.0012   16.1947 H           1 C03       0.0578
     61 H21         2.5355    9.9554   14.9405 H           1 C03       0.0578
@<TRIPOS>BOND
     1     1     2  ar
     2     1     6  ar
     3     2     3  ar
     4     3     4  ar
     5     3     7   1
     6     4     5  ar
     7     4     9   1
     8     5     6  ar
     9     6    13   1
    10     7     8   2
    11     7    10   1
    12     8     9   1
    13     8    11   1
    14     9    12   1
    15    10    31   2
    16    10    34   1
    17    12    18   1
    18    13    14   1
    19    14    15   1
    20    14    16   1
    21    14    17   1
    22    18    19  ar
    23    18    23  ar
    24    19    20  ar
    25    20    21  ar
    26    20    25   1
    27    21    22  ar
    28    22    23  ar
    29    23    24   1
    30    25    26   1
    31    26    27   1
    32    26    28   1
    33    28    29  ar
    34    28    30  ar
    35    31    32   1
    36    32    33   1
    37    33    34  ar
    38    33    35  ar
    39    34    38  ar
    40    35    36  ar
    41    36    37  ar
    42    36    39   1
    43    37    38  ar
    44    39    40   1
    45     1    41   1
    46     2    42   1
    47     5    43   1
    48    11    44   1
    49    11    45   1
    50    11    46   1
    51    12    47   1
    52    12    48   1
    53    19    49   1
    54    21    50   1
    55    22    51   1
    56    26    52   1
    57    27    53   1
    58    27    54   1
    59    27    55   1
    60    35    56   1
    61    37    57   1
    62    38    58   1
    63    40    59   1
    64    40    60   1
    65    40    61   1
@<TRIPOS>SUBSTRUCTURE
     1  C03      1

