@<TRIPOS>MOLECULE
2p4y_ligand_006
    61    65
SMALL
GAST_HUCK
****
This file was generated by PARSER (from files_GN.cpp)

@<TRIPOS>ATOM
      1 C1         11.7320   17.3458    8.5780 C.ar        1 C03      -0.0494
      2 C2         11.3470   15.9955    8.4842 C.ar        1 C03      -0.0824
      3 C3         12.2868   14.9883    8.7845 C.ar        1 C03      -0.0320
      4 C4         13.5572   15.3209    9.2525 C.ar        1 C03       0.0592
      5 C5         13.9458   16.6731    9.3376 C.ar        1 C03      -0.0175
      6 C6         13.0473   17.7016    8.9857 C.ar        1 C03       0.0845
      7 C10        12.1965   13.5967    8.7700 C.2         1 C03      -0.0105
      8 C11        13.4090   13.1248    9.2926 C.2         1 C03       0.0574
      9 N12        14.2098   14.1864    9.6001 N.pl3       1 C03      -0.2466
     10 C13        11.0724   12.8531    8.3555 C.2         1 C03       0.0368
     11 C14        13.7892   11.7013    9.4535 C.3         1 C03      -0.0027
     12 C18        15.5286   14.1519   10.1904 C.3         1 C03       0.0846
     13 O19        13.5492   18.9779    9.0704 O.3         1 C03      -0.2340
     14 C20        12.7013   20.1263    9.2103 C.3         1 C03       0.5447
     15 F21        13.5230   21.2228    9.3668 F           1 C03      -0.1402
     16 F22        11.8983   20.0492   10.3221 F           1 C03      -0.1402
     17 F23        11.9455   20.3396    8.0905 F           1 C03      -0.1402
     18 C24        15.7761   14.9373   11.4461 C.ar        1 C03      -0.0091
     19 C27        17.1304   15.2312   11.7526 C.ar        1 C03      -0.0287
     20 C28        17.4948   15.9977   12.8771 C.ar        1 C03       0.0876
     21 C29        16.4967   16.4396   13.7574 C.ar        1 C03      -0.0391
     22 C30        15.1510   16.1185   13.5174 C.ar        1 C03      -0.0631
     23 C31        14.7825   15.3697   12.3744 C.ar        1 C03       0.0319
     24 CL1        13.1322   15.0064   12.2437 Cl          1 C03      -0.0872
     25 O36        18.7937   16.3058   13.1895 O.3         1 C03      -0.3024
     26 C37        19.5349   17.1089   12.2413 C.3         1 C03       0.1302
     27 C38        20.9628   17.3139   12.7950 C.3         1 C03      -0.0222
     28 C42        18.8968   18.4184   11.9687 C.2         1 C03       0.0683
     29 O44        18.9624   19.4179   12.8783 O.co2       1 C03      -0.5660
     30 O45        18.1070   18.5840   10.8837 O.co2       1 C03      -0.5660
     31 N46        10.5901   11.7692    9.0000 N.2         1 C03      -0.1679
     32 O47         9.4875   11.3498    8.4330 O.3         1 C03      -0.1876
     33 C48         9.2065   12.1541    7.3852 C.ar        1 C03       0.1433
     34 C49        10.2154   13.1070    7.2865 C.ar        1 C03       0.0134
     35 C50         8.1136   12.1582    6.5016 C.ar        1 C03       0.0032
     36 C51         8.0320   13.1422    5.4891 C.ar        1 C03       0.0851
     37 C52         9.1038   14.0652    5.3466 C.ar        1 C03      -0.0395
     38 C53        10.1981   14.0532    6.2446 C.ar        1 C03      -0.0670
     39 O57         6.9006   13.1048    4.7099 O.3         1 C03      -0.3234
     40 C58         6.5187   14.2575    3.9438 C.3         1 C03       0.0592
     41 H1         11.0483   18.0700    8.3463 H           1 C03       0.0459
     42 H2         10.3938   15.7592    8.1989 H           1 C03       0.0504
     43 H3         14.8887   16.9089    9.6697 H           1 C03       0.0444
     44 H4         13.0292   11.0217    9.0677 H           1 C03       0.0449
     45 H5         13.9456   11.4822   10.5108 H           1 C03       0.0449
     46 H6         14.7131   11.5115    8.9057 H           1 C03       0.0449
     47 H7         16.2058   14.5112    9.4061 H           1 C03       0.0764
     48 H8         15.8383   13.1303   10.4102 H           1 C03       0.0764
     49 H9         17.8747   14.8779   11.1478 H           1 C03       0.0480
     50 H10        16.7476   16.9879   14.5856 H           1 C03       0.0487
     51 H11        14.4435   16.4346   14.1852 H           1 C03       0.0578
     52 H12        19.6307   16.5519   11.3062 H           1 C03       0.0818
     53 H13        21.5712   17.8801   12.0864 H           1 C03       0.0276
     54 H14        21.4380   16.3450   12.9575 H           1 C03       0.0276
     55 H15        20.9380   17.8486   13.7482 H           1 C03       0.0276
     56 H16         7.3675   11.4644    6.6200 H           1 C03       0.0476
     57 H17         9.0910   14.7663    4.6032 H           1 C03       0.0490
     58 H18        10.9543   14.7363    6.1545 H           1 C03       0.0582
     59 H19         5.5303   14.0792    3.5125 H           1 C03       0.0578
     60 H20         7.2214   14.4240    3.1248 H           1 C03       0.0578
     61 H21         6.4631   15.1496    4.5719 H           1 C03       0.0578
@<TRIPOS>BOND
     1     1     2  ar
     2     1     6  ar
     3     2     3  ar
     4     3     4  ar
     5     3     7   1
     6     4     5  ar
     7     4     9   1
     8     5     6  ar
     9     6    13   1
    10     7     8   2
    11     7    10   1
    12     8     9   1
    13     8    11   1
    14     9    12   1
    15    10    31   2
    16    10    34   1
    17    12    18   1
    18    13    14   1
    19    14    15   1
    20    14    16   1
    21    14    17   1
    22    18    19  ar
    23    18    23  ar
    24    19    20  ar
    25    20    21  ar
    26    20    25   1
    27    21    22  ar
    28    22    23  ar
    29    23    24   1
    30    25    26   1
    31    26    27   1
    32    26    28   1
    33    28    29  ar
    34    28    30  ar
    35    31    32   1
    36    32    33   1
    37    33    34  ar
    38    33    35  ar
    39    34    38  ar
    40    35    36  ar
    41    36    37  ar
    42    36    39   1
    43    37    38  ar
    44    39    40   1
    45     1    41   1
    46     2    42   1
    47     5    43   1
    48    11    44   1
    49    11    45   1
    50    11    46   1
    51    12    47   1
    52    12    48   1
    53    19    49   1
    54    21    50   1
    55    22    51   1
    56    26    52   1
    57    27    53   1
    58    27    54   1
    59    27    55   1
    60    35    56   1
    61    37    57   1
    62    38    58   1
    63    40    59   1
    64    40    60   1
    65    40    61   1
@<TRIPOS>SUBSTRUCTURE
     1  C03      1

