@<TRIPOS>MOLECULE
2p4y_ligand_084
    61    65
SMALL
GAST_HUCK
****
This file was generated by PARSER (from files_GN.cpp)

@<TRIPOS>ATOM
      1 C1         18.5737   11.5758    9.0555 C.ar        1 C03      -0.0494
      2 C2         17.2882   11.0151    9.1750 C.ar        1 C03      -0.0824
      3 C3         16.2011   11.8596    9.4750 C.ar        1 C03      -0.0320
      4 C4         16.3788   13.2313    9.6686 C.ar        1 C03       0.0592
      5 C5         17.6682   13.7921    9.5468 C.ar        1 C03      -0.0175
      6 C6         18.7634   12.9672    9.2115 C.ar        1 C03       0.0845
      7 C10        14.8453   11.5935    9.6380 C.2         1 C03      -0.0105
      8 C11        14.2204   12.8250    9.8566 C.2         1 C03       0.0574
      9 N12        15.1762   13.7985    9.9334 N.pl3       1 C03      -0.2466
     10 C13        14.2520   10.3142    9.6438 C.2         1 C03       0.0368
     11 C14        12.7670   13.0316   10.0865 C.3         1 C03      -0.0027
     12 C18        14.9674   15.1881   10.2648 C.3         1 C03       0.0846
     13 O19        20.0154   13.5027    9.0679 O.3         1 C03      -0.2340
     14 C20        20.3578   13.9520    7.7425 C.3         1 C03       0.5447
     15 F21        21.6581   14.3836    7.7846 F           1 C03      -0.1402
     16 F22        19.5809   15.0114    7.3394 F           1 C03      -0.1402
     17 F23        20.2916   12.9509    6.8020 F           1 C03      -0.1402
     18 C24        15.5824   15.6592   11.5500 C.ar        1 C03      -0.0091
     19 C27        16.0681   16.9889   11.6088 C.ar        1 C03      -0.0287
     20 C28        16.6206   17.5286   12.7892 C.ar        1 C03       0.0876
     21 C29        16.6558   16.7481   13.9525 C.ar        1 C03      -0.0391
     22 C30        16.1747   15.4306   13.9283 C.ar        1 C03      -0.0631
     23 C31        15.6167   14.8881   12.7531 C.ar        1 C03       0.0319
     24 CL1        14.9582   13.3331   12.8995 Cl          1 C03      -0.0872
     25 O36        17.0303   18.8359   12.8612 O.3         1 C03      -0.3024
     26 C37        18.3904   19.1512   12.4856 C.3         1 C03       0.1302
     27 C38        18.5910   19.0090   10.9559 C.3         1 C03      -0.0222
     28 C42        19.4081   18.4280   13.2971 C.2         1 C03       0.0683
     29 O44        19.4045   18.5534   14.6401 O.co2       1 C03      -0.5660
     30 O45        20.3134   17.5920   12.7415 O.co2       1 C03      -0.5660
     31 N46        13.1823    9.9512    8.9075 N.2         1 C03      -0.1679
     32 O47        12.8598    8.7085    9.1611 O.3         1 C03      -0.1876
     33 C48        13.7035    8.2182   10.0938 C.ar        1 C03       0.1433
     34 C49        14.6101    9.2203   10.4204 C.ar        1 C03       0.0134
     35 C50        13.7569    6.9533   10.7021 C.ar        1 C03       0.0032
     36 C51        14.7534    6.7122   11.6778 C.ar        1 C03       0.0851
     37 C52        15.6813    7.7284   12.0045 C.ar        1 C03      -0.0395
     38 C53        15.6049    8.9954   11.3904 C.ar        1 C03      -0.0670
     39 O57        14.8436    5.4757   12.2556 O.3         1 C03      -0.3234
     40 C58        14.2562    5.4102   13.5668 C.3         1 C03       0.0592
     41 H1         19.3672   10.9792    8.8105 H           1 C03       0.0459
     42 H2         17.1550   10.0123    9.0372 H           1 C03       0.0504
     43 H3         17.8120   14.7870    9.7098 H           1 C03       0.0444
     44 H4         12.2034   12.1026   10.0486 H           1 C03       0.0449
     45 H5         12.3666   13.7021    9.3270 H           1 C03       0.0449
     46 H6         12.6084   13.4749   11.0686 H           1 C03       0.0449
     47 H7         13.9056   15.4287   10.3255 H           1 C03       0.0764
     48 H8         15.3469   15.7715    9.4195 H           1 C03       0.0764
     49 H9         16.0063   17.5894   10.7830 H           1 C03       0.0480
     50 H10        17.0198   17.1381   14.8258 H           1 C03       0.0487
     51 H11        16.2156   14.8846   14.7904 H           1 C03       0.0578
     52 H12        18.5200   20.2086   12.7140 H           1 C03       0.0818
     53 H13        19.5704   19.3911   10.6582 H           1 C03       0.0276
     54 H14        17.8214   19.5839   10.4317 H           1 C03       0.0276
     55 H15        18.5099   17.9637   10.6565 H           1 C03       0.0276
     56 H16        13.0833    6.2289   10.4463 H           1 C03       0.0476
     57 H17        16.4126    7.5472   12.6971 H           1 C03       0.0490
     58 H18        16.2689    9.7293   11.6395 H           1 C03       0.0582
     59 H19        14.3496    4.3846   13.9281 H           1 C03       0.0578
     60 H20        13.1934    5.6691   13.5420 H           1 C03       0.0578
     61 H21        14.7764    6.0675   14.2702 H           1 C03       0.0578
@<TRIPOS>BOND
     1     1     2  ar
     2     1     6  ar
     3     2     3  ar
     4     3     4  ar
     5     3     7   1
     6     4     5  ar
     7     4     9   1
     8     5     6  ar
     9     6    13   1
    10     7     8   2
    11     7    10   1
    12     8     9   1
    13     8    11   1
    14     9    12   1
    15    10    31   2
    16    10    34   1
    17    12    18   1
    18    13    14   1
    19    14    15   1
    20    14    16   1
    21    14    17   1
    22    18    19  ar
    23    18    23  ar
    24    19    20  ar
    25    20    21  ar
    26    20    25   1
    27    21    22  ar
    28    22    23  ar
    29    23    24   1
    30    25    26   1
    31    26    27   1
    32    26    28   1
    33    28    29  ar
    34    28    30  ar
    35    31    32   1
    36    32    33   1
    37    33    34  ar
    38    33    35  ar
    39    34    38  ar
    40    35    36  ar
    41    36    37  ar
    42    36    39   1
    43    37    38  ar
    44    39    40   1
    45     1    41   1
    46     2    42   1
    47     5    43   1
    48    11    44   1
    49    11    45   1
    50    11    46   1
    51    12    47   1
    52    12    48   1
    53    19    49   1
    54    21    50   1
    55    22    51   1
    56    26    52   1
    57    27    53   1
    58    27    54   1
    59    27    55   1
    60    35    56   1
    61    37    57   1
    62    38    58   1
    63    40    59   1
    64    40    60   1
    65    40    61   1
@<TRIPOS>SUBSTRUCTURE
     1  C03      1

