@<TRIPOS>MOLECULE
2p4y_ligand_073
    61    65
SMALL
GAST_HUCK
****
This file was generated by PARSER (from files_GN.cpp)

@<TRIPOS>ATOM
      1 C1         10.3328   16.1247   12.1359 C.ar        1 C03      -0.0494
      2 C2          9.6800   15.2318   11.2653 C.ar        1 C03      -0.0824
      3 C3         10.3727   14.7403   10.1426 C.ar        1 C03      -0.0320
      4 C4         11.7084   15.0694    9.9132 C.ar        1 C03       0.0592
      5 C5         12.3739   15.9560   10.7949 C.ar        1 C03      -0.0175
      6 C6         11.6741   16.5058   11.9004 C.ar        1 C03       0.0845
      7 C10         9.9275   14.0018    9.0536 C.2         1 C03      -0.0105
      8 C11        11.0226   13.8798    8.1799 C.2         1 C03       0.0574
      9 N12        12.1030   14.4897    8.7520 N.pl3       1 C03      -0.2466
     10 C13         8.6012   13.5320    8.9102 C.2         1 C03       0.0368
     11 C14        10.9746   13.2503    6.8386 C.3         1 C03      -0.0027
     12 C18        13.4220   14.5949    8.1754 C.3         1 C03       0.0846
     13 O19        12.1411   17.5093   12.7251 O.3         1 C03      -0.2340
     14 C20        13.5133   17.5444   13.1574 C.3         1 C03       0.5447
     15 F21        13.6080   18.5140   14.1277 F           1 C03      -0.1402
     16 F22        14.3480   17.9131   12.1255 F           1 C03      -0.1402
     17 F23        13.9151   16.3504   13.7179 F           1 C03      -0.1402
     18 C24        14.5443   13.9568    8.9422 C.ar        1 C03      -0.0091
     19 C27        15.5563   14.7869    9.4945 C.ar        1 C03      -0.0287
     20 C28        16.7393   14.2606   10.0514 C.ar        1 C03       0.0876
     21 C29        16.9434   12.8699   10.0562 C.ar        1 C03      -0.0391
     22 C30        15.9298   12.0165    9.5756 C.ar        1 C03      -0.0631
     23 C31        14.7380   12.5458    9.0329 C.ar        1 C03       0.0319
     24 CL1        13.6210   11.4160    8.4176 Cl          1 C03      -0.0872
     25 O36        17.7052   15.1381   10.4591 O.3         1 C03      -0.3024
     26 C37        17.7646   15.5383   11.8485 C.3         1 C03       0.1302
     27 C38        16.4365   15.4429   12.6471 C.3         1 C03      -0.0222
     28 C42        18.2511   16.9336   11.8523 C.2         1 C03       0.0683
     29 O44        18.8502   17.4264   12.9600 O.co2       1 C03      -0.5660
     30 O45        17.6922   17.8311   11.0070 O.co2       1 C03      -0.5660
     31 N46         7.9223   12.9693    9.9294 N.2         1 C03      -0.1679
     32 O47         6.7229   12.6053    9.5502 O.3         1 C03      -0.1876
     33 C48         6.5764   12.9319    8.2452 C.ar        1 C03       0.1433
     34 C49         7.7512   13.5393    7.8097 C.ar        1 C03       0.0134
     35 C50         5.4868   12.7229    7.3804 C.ar        1 C03       0.0032
     36 C51         5.5948   13.1526    6.0395 C.ar        1 C03       0.0851
     37 C52         6.7749   13.7942    5.5970 C.ar        1 C03      -0.0395
     38 C53         7.8551   14.0116    6.4834 C.ar        1 C03      -0.0670
     39 O57         4.6168   12.8457    5.1348 O.3         1 C03      -0.3234
     40 C58         3.3692   13.5174    5.3665 C.3         1 C03       0.0592
     41 H1          9.8129   16.5149   12.9296 H           1 C03       0.0459
     42 H2          8.6956   14.9995   11.4191 H           1 C03       0.0504
     43 H3         13.3299   16.2523   10.6090 H           1 C03       0.0444
     44 H4         10.0447   12.6973    6.6818 H           1 C03       0.0449
     45 H5         11.8100   12.5574    6.6973 H           1 C03       0.0449
     46 H6         11.0369   14.0306    6.0749 H           1 C03       0.0449
     47 H7         13.6149   15.6577    8.0127 H           1 C03       0.0764
     48 H8         13.4620   14.1550    7.1783 H           1 C03       0.0764
     49 H9         15.4497   15.8028    9.4617 H           1 C03       0.0480
     50 H10        17.8204   12.4768   10.3984 H           1 C03       0.0487
     51 H11        16.0904   11.0035    9.5863 H           1 C03       0.0578
     52 H12        18.5101   14.9196   12.3524 H           1 C03       0.0818
     53 H13        16.5324   15.8991   13.6383 H           1 C03       0.0276
     54 H14        16.1618   14.3937   12.7849 H           1 C03       0.0276
     55 H15        15.6390   15.9454   12.0945 H           1 C03       0.0276
     56 H16         4.6451   12.2522    7.7182 H           1 C03       0.0476
     57 H17         6.8534   14.0895    4.6167 H           1 C03       0.0490
     58 H18         8.6909   14.4875    6.1557 H           1 C03       0.0582
     59 H19         2.6810   13.2135    4.5795 H           1 C03       0.0578
     60 H20         3.4832   14.6021    5.3221 H           1 C03       0.0578
     61 H21         2.9360   13.2340    6.3272 H           1 C03       0.0578
@<TRIPOS>BOND
     1     1     2  ar
     2     1     6  ar
     3     2     3  ar
     4     3     4  ar
     5     3     7   1
     6     4     5  ar
     7     4     9   1
     8     5     6  ar
     9     6    13   1
    10     7     8   2
    11     7    10   1
    12     8     9   1
    13     8    11   1
    14     9    12   1
    15    10    31   2
    16    10    34   1
    17    12    18   1
    18    13    14   1
    19    14    15   1
    20    14    16   1
    21    14    17   1
    22    18    19  ar
    23    18    23  ar
    24    19    20  ar
    25    20    21  ar
    26    20    25   1
    27    21    22  ar
    28    22    23  ar
    29    23    24   1
    30    25    26   1
    31    26    27   1
    32    26    28   1
    33    28    29  ar
    34    28    30  ar
    35    31    32   1
    36    32    33   1
    37    33    34  ar
    38    33    35  ar
    39    34    38  ar
    40    35    36  ar
    41    36    37  ar
    42    36    39   1
    43    37    38  ar
    44    39    40   1
    45     1    41   1
    46     2    42   1
    47     5    43   1
    48    11    44   1
    49    11    45   1
    50    11    46   1
    51    12    47   1
    52    12    48   1
    53    19    49   1
    54    21    50   1
    55    22    51   1
    56    26    52   1
    57    27    53   1
    58    27    54   1
    59    27    55   1
    60    35    56   1
    61    37    57   1
    62    38    58   1
    63    40    59   1
    64    40    60   1
    65    40    61   1
@<TRIPOS>SUBSTRUCTURE
     1  C03      1

