@<TRIPOS>MOLECULE
2p4y_ligand_063
    61    65
SMALL
GAST_HUCK
****
This file was generated by PARSER (from files_GN.cpp)

@<TRIPOS>ATOM
      1 C1          6.6401    2.5401   12.9233 C.ar        1 C03      -0.0494
      2 C2          6.3982    3.7836   12.3097 C.ar        1 C03      -0.0824
      3 C3          7.4716    4.4705   11.7111 C.ar        1 C03      -0.0320
      4 C4          8.7698    3.9608   11.7485 C.ar        1 C03       0.0592
      5 C5          9.0163    2.7127   12.3645 C.ar        1 C03      -0.0175
      6 C6          7.9395    1.9820   12.9262 C.ar        1 C03       0.0845
      7 C10         7.5157    5.6712   11.0267 C.2         1 C03      -0.0105
      8 C11         8.8593    5.8962   10.7119 C.2         1 C03       0.0574
      9 N12         9.6147    4.8721   11.2024 N.pl3       1 C03      -0.2466
     10 C13         6.3966    6.4365   10.6670 C.2         1 C03       0.0368
     11 C14         9.3603    7.0689    9.9676 C.3         1 C03      -0.0027
     12 C18        11.0623    4.7605   11.1477 C.3         1 C03       0.0846
     13 O19         8.1252    0.7758   13.5450 O.3         1 C03      -0.2340
     14 C20         8.8289   -0.2192   12.7749 C.3         1 C03       0.5447
     15 F21         8.7068   -1.4174   13.4408 F           1 C03      -0.1402
     16 F22        10.1718    0.0681   12.6943 F           1 C03      -0.1402
     17 F23         8.3243   -0.4128   11.5061 F           1 C03      -0.1402
     18 C24        11.8048    4.4225   12.4068 C.ar        1 C03      -0.0091
     19 C27        11.1693    4.4632   13.6719 C.ar        1 C03      -0.0287
     20 C28        11.7776    3.9097   14.8119 C.ar        1 C03       0.0876
     21 C29        13.1185    3.4914   14.7546 C.ar        1 C03      -0.0391
     22 C30        13.8103    3.5373   13.5331 C.ar        1 C03      -0.0631
     23 C31        13.1542    3.9658   12.3617 C.ar        1 C03       0.0319
     24 CL1        14.0484    3.8955   10.9167 Cl          1 C03      -0.0872
     25 O36        11.0200    3.7255   15.9383 O.3         1 C03      -0.3024
     26 C37        10.1034    2.6008   15.8857 C.3         1 C03       0.1302
     27 C38         8.6708    3.1726   15.7803 C.3         1 C03      -0.0222
     28 C42        10.3199    1.7435   17.0735 C.2         1 C03       0.0683
     29 O44         9.4903    0.7299   17.4119 O.co2       1 C03      -0.5660
     30 O45        11.3985    1.9513   17.8623 O.co2       1 C03      -0.5660
     31 N46         5.8028    6.4019    9.4577 N.2         1 C03      -0.1679
     32 O47         4.7474    7.1756    9.4435 O.3         1 C03      -0.1876
     33 C48         4.6220    7.7489   10.6616 C.ar        1 C03       0.1433
     34 C49         5.6670    7.3045   11.4650 C.ar        1 C03       0.0134
     35 C50         3.6551    8.6423   11.1547 C.ar        1 C03       0.0032
     36 C51         3.7733    9.1080   12.4824 C.ar        1 C03       0.0851
     37 C52         4.8377    8.6466   13.3024 C.ar        1 C03      -0.0395
     38 C53         5.7943    7.7404   12.7953 C.ar        1 C03      -0.0670
     39 O57         2.8360    9.9568   12.9986 O.3         1 C03      -0.3234
     40 C58         2.9232   11.2953   12.4775 C.3         1 C03       0.0592
     41 H1          5.8657    2.0415   13.3643 H           1 C03       0.0459
     42 H2          5.4655    4.2067   12.3246 H           1 C03       0.0504
     43 H3          9.9628    2.3366   12.3989 H           1 C03       0.0444
     44 H4          8.5669    7.7722    9.7158 H           1 C03       0.0449
     45 H5          9.8286    6.7308    9.0437 H           1 C03       0.0449
     46 H6         10.1011    7.5916   10.5689 H           1 C03       0.0449
     47 H7         11.4910    5.6926   10.7763 H           1 C03       0.0764
     48 H8         11.2996    3.9965   10.4027 H           1 C03       0.0764
     49 H9         10.2184    4.8172   13.7774 H           1 C03       0.0480
     50 H10        13.5824    3.1233   15.5902 H           1 C03       0.0487
     51 H11        14.7782    3.2138   13.4980 H           1 C03       0.0578
     52 H12        10.2459    1.9753   14.9988 H           1 C03       0.0818
     53 H13         7.9407    2.3611   15.7248 H           1 C03       0.0276
     54 H14         8.5793    3.7745   14.8735 H           1 C03       0.0276
     55 H15         8.4358    3.8018   16.6424 H           1 C03       0.0276
     56 H16         2.8915    8.9503   10.5536 H           1 C03       0.0476
     57 H17         4.9108    8.9707   14.2674 H           1 C03       0.0490
     58 H18         6.5610    7.4111   13.3841 H           1 C03       0.0582
     59 H19         2.1515   11.8982   12.9571 H           1 C03       0.0578
     60 H20         2.7484   11.3135   11.3991 H           1 C03       0.0578
     61 H21         3.8939   11.7458   12.6984 H           1 C03       0.0578
@<TRIPOS>BOND
     1     1     2  ar
     2     1     6  ar
     3     2     3  ar
     4     3     4  ar
     5     3     7   1
     6     4     5  ar
     7     4     9   1
     8     5     6  ar
     9     6    13   1
    10     7     8   2
    11     7    10   1
    12     8     9   1
    13     8    11   1
    14     9    12   1
    15    10    31   2
    16    10    34   1
    17    12    18   1
    18    13    14   1
    19    14    15   1
    20    14    16   1
    21    14    17   1
    22    18    19  ar
    23    18    23  ar
    24    19    20  ar
    25    20    21  ar
    26    20    25   1
    27    21    22  ar
    28    22    23  ar
    29    23    24   1
    30    25    26   1
    31    26    27   1
    32    26    28   1
    33    28    29  ar
    34    28    30  ar
    35    31    32   1
    36    32    33   1
    37    33    34  ar
    38    33    35  ar
    39    34    38  ar
    40    35    36  ar
    41    36    37  ar
    42    36    39   1
    43    37    38  ar
    44    39    40   1
    45     1    41   1
    46     2    42   1
    47     5    43   1
    48    11    44   1
    49    11    45   1
    50    11    46   1
    51    12    47   1
    52    12    48   1
    53    19    49   1
    54    21    50   1
    55    22    51   1
    56    26    52   1
    57    27    53   1
    58    27    54   1
    59    27    55   1
    60    35    56   1
    61    37    57   1
    62    38    58   1
    63    40    59   1
    64    40    60   1
    65    40    61   1
@<TRIPOS>SUBSTRUCTURE
     1  C03      1

