@<TRIPOS>MOLECULE
2p4y_ligand_040
    61    65
SMALL
GAST_HUCK
****
This file was generated by PARSER (from files_GN.cpp)

@<TRIPOS>ATOM
      1 C1         13.8022   14.6371    5.7432 C.ar        1 C03      -0.0494
      2 C2         13.1006   14.0973    6.8397 C.ar        1 C03      -0.0824
      3 C3         13.8211   13.7307    7.9908 C.ar        1 C03      -0.0320
      4 C4         15.2077   13.8849    8.0737 C.ar        1 C03       0.0592
      5 C5         15.9000   14.4659    6.9854 C.ar        1 C03      -0.0175
      6 C6         15.1980   14.8386    5.8165 C.ar        1 C03       0.0845
      7 C10        13.3927   13.1763    9.1882 C.2         1 C03      -0.0105
      8 C11        14.5388   12.9748    9.9687 C.2         1 C03       0.0574
      9 N12        15.6386   13.3779    9.2619 N.pl3       1 C03      -0.2466
     10 C13        12.0605   12.8496    9.5015 C.2         1 C03       0.0368
     11 C14        14.5395   12.3992   11.3371 C.3         1 C03      -0.0027
     12 C18        17.0039   13.2744    9.7353 C.3         1 C03       0.0846
     13 O19        15.8802   15.2787    4.7119 O.3         1 C03      -0.2340
     14 C20        16.2163   16.6780    4.6859 C.3         1 C03       0.5447
     15 F21        16.8650   16.9246    3.5019 F           1 C03      -0.1402
     16 F22        17.0730   17.0302    5.7019 F           1 C03      -0.1402
     17 F23        15.1058   17.4866    4.7204 F           1 C03      -0.1402
     18 C24        18.0585   12.9806    8.7196 C.ar        1 C03      -0.0091
     19 C27        19.2101   13.8040    8.6531 C.ar        1 C03      -0.0287
     20 C28        20.2146   13.5984    7.6890 C.ar        1 C03       0.0876
     21 C29        20.0793   12.5335    6.7745 C.ar        1 C03      -0.0391
     22 C30        18.9546   11.6927    6.8316 C.ar        1 C03      -0.0631
     23 C31        17.9551   11.8955    7.8077 C.ar        1 C03       0.0319
     24 CL1        16.6432   10.8134    7.8199 Cl          1 C03      -0.0872
     25 O36        21.3311   14.3966    7.7537 O.3         1 C03      -0.3024
     26 C37        21.7904   15.1490    6.6041 C.3         1 C03       0.1302
     27 C38        20.6618   15.8533    5.8024 C.3         1 C03      -0.0222
     28 C42        22.7055   14.3298    5.7826 C.2         1 C03       0.0683
     29 O44        22.4884   14.0837    4.4705 O.co2       1 C03      -0.5660
     30 O45        23.8106   13.7970    6.3504 O.co2       1 C03      -0.5660
     31 N46        11.4299   11.7344    9.0821 N.2         1 C03      -0.1679
     32 O47        10.1910   11.7265    9.5111 O.3         1 C03      -0.1876
     33 C48         9.9714   12.8599   10.2123 C.ar        1 C03       0.1433
     34 C49        11.1489   13.5962   10.2332 C.ar        1 C03       0.0134
     35 C50         8.8047   13.3318   10.8379 C.ar        1 C03       0.0032
     36 C51         8.8399   14.5854   11.4940 C.ar        1 C03       0.0851
     37 C52        10.0422   15.3332   11.5112 C.ar        1 C03      -0.0395
     38 C53        11.2105   14.8387   10.8889 C.ar        1 C03      -0.0670
     39 O57         7.7062   15.1412   12.0230 O.3         1 C03      -0.3234
     40 C58         7.2102   14.4798   13.1983 C.3         1 C03       0.0592
     41 H1         13.2922   14.8830    4.8877 H           1 C03       0.0459
     42 H2         12.0874   13.9584    6.7880 H           1 C03       0.0504
     43 H3         16.9085   14.6116    7.0183 H           1 C03       0.0444
     44 H4         13.5296   12.2039   11.7059 H           1 C03       0.0449
     45 H5         15.0226   13.0920   12.0288 H           1 C03       0.0449
     46 H6         15.0856   11.4551   11.3422 H           1 C03       0.0449
     47 H7         17.0878   12.4674   10.4628 H           1 C03       0.0764
     48 H8         17.2212   14.1977   10.2781 H           1 C03       0.0764
     49 H9         19.3198   14.5858    9.3029 H           1 C03       0.0480
     50 H10        20.7953   12.3619    6.0678 H           1 C03       0.0487
     51 H11        18.8783   10.9195    6.1669 H           1 C03       0.0578
     52 H12        22.4077   15.9481    7.0206 H           1 C03       0.0818
     53 H13        21.0954   16.5273    5.0601 H           1 C03       0.0276
     54 H14        20.0347   16.4376    6.4790 H           1 C03       0.0276
     55 H15        20.0345   15.1214    5.2901 H           1 C03       0.0276
     56 H16         7.9416   12.7841   10.7987 H           1 C03       0.0476
     57 H17        10.0662   16.2469   11.9690 H           1 C03       0.0490
     58 H18        12.0760   15.3801   10.9006 H           1 C03       0.0582
     59 H19         6.3760   15.0640   13.5890 H           1 C03       0.0578
     60 H20         7.9723   14.4177   13.9776 H           1 C03       0.0578
     61 H21         6.8451   13.4771   12.9620 H           1 C03       0.0578
@<TRIPOS>BOND
     1     1     2  ar
     2     1     6  ar
     3     2     3  ar
     4     3     4  ar
     5     3     7   1
     6     4     5  ar
     7     4     9   1
     8     5     6  ar
     9     6    13   1
    10     7     8   2
    11     7    10   1
    12     8     9   1
    13     8    11   1
    14     9    12   1
    15    10    31   2
    16    10    34   1
    17    12    18   1
    18    13    14   1
    19    14    15   1
    20    14    16   1
    21    14    17   1
    22    18    19  ar
    23    18    23  ar
    24    19    20  ar
    25    20    21  ar
    26    20    25   1
    27    21    22  ar
    28    22    23  ar
    29    23    24   1
    30    25    26   1
    31    26    27   1
    32    26    28   1
    33    28    29  ar
    34    28    30  ar
    35    31    32   1
    36    32    33   1
    37    33    34  ar
    38    33    35  ar
    39    34    38  ar
    40    35    36  ar
    41    36    37  ar
    42    36    39   1
    43    37    38  ar
    44    39    40   1
    45     1    41   1
    46     2    42   1
    47     5    43   1
    48    11    44   1
    49    11    45   1
    50    11    46   1
    51    12    47   1
    52    12    48   1
    53    19    49   1
    54    21    50   1
    55    22    51   1
    56    26    52   1
    57    27    53   1
    58    27    54   1
    59    27    55   1
    60    35    56   1
    61    37    57   1
    62    38    58   1
    63    40    59   1
    64    40    60   1
    65    40    61   1
@<TRIPOS>SUBSTRUCTURE
     1  C03      1

