@<TRIPOS>MOLECULE
2p4y_ligand_058
    61    65
SMALL
GAST_HUCK
****
This file was generated by PARSER (from files_GN.cpp)

@<TRIPOS>ATOM
      1 C1         12.3167    6.4712   10.9034 C.ar        1 C03      -0.0494
      2 C2         13.2692    5.7160   11.6193 C.ar        1 C03      -0.0824
      3 C3         12.8523    4.9869   12.7532 C.ar        1 C03      -0.0320
      4 C4         11.5254    5.0256   13.1827 C.ar        1 C03       0.0592
      5 C5         10.5893    5.8189   12.4880 C.ar        1 C03      -0.0175
      6 C6         10.9700    6.5252   11.3302 C.ar        1 C03       0.0845
      7 C10        13.5541    4.1898   13.6525 C.2         1 C03      -0.0105
      8 C11        12.6053    3.7096   14.5727 C.2         1 C03       0.0574
      9 N12        11.3905    4.2578   14.2896 N.pl3       1 C03      -0.2466
     10 C13        14.9503    3.9626   13.6061 C.2         1 C03       0.0368
     11 C14        12.8621    2.7031   15.6361 C.3         1 C03      -0.0027
     12 C18        10.1682    4.1327   15.0590 C.3         1 C03       0.0846
     13 O19        10.0930    7.3573   10.6928 O.3         1 C03      -0.2340
     14 C20         8.9305    6.7427   10.0997 C.3         1 C03       0.5447
     15 F21         8.1017    6.1283   11.0132 F           1 C03      -0.1402
     16 F22         9.2597    5.8446    9.1089 F           1 C03      -0.1402
     17 F23         8.2079    7.7556    9.5336 F           1 C03      -0.1402
     18 C24         9.0094    3.5421   14.3190 C.ar        1 C03      -0.0091
     19 C27         9.0307    2.1473   14.0628 C.ar        1 C03      -0.0287
     20 C28         7.9120    1.4691   13.5371 C.ar        1 C03       0.0876
     21 C29         6.7441    2.2065   13.2451 C.ar        1 C03      -0.0391
     22 C30         6.7231    3.5989   13.4275 C.ar        1 C03      -0.0631
     23 C31         7.8409    4.2713   13.9582 C.ar        1 C03       0.0319
     24 CL1         7.6694    5.9511   14.1687 Cl          1 C03      -0.0872
     25 O36         8.0120    0.0994   13.4265 O.3         1 C03      -0.3024
     26 C37         7.4735   -0.5920   12.2738 C.3         1 C03       0.1302
     27 C38         7.9416   -2.0624   12.3487 C.3         1 C03      -0.0222
     28 C42         7.8609   -0.0142   10.9661 C.2         1 C03       0.0683
     29 O44         8.2843    1.2655   10.8474 O.co2       1 C03      -0.5660
     30 O45         7.6600   -0.7197    9.8308 O.co2       1 C03      -0.5660
     31 N46        15.6471    3.8394   12.4583 N.2         1 C03      -0.1679
     32 O47        16.9116    3.6087   12.7045 O.3         1 C03      -0.1876
     33 C48        17.0886    3.5787   14.0403 C.ar        1 C03       0.1433
     34 C49        15.8628    3.8324   14.6476 C.ar        1 C03       0.0134
     35 C50        18.2490    3.3382   14.7903 C.ar        1 C03       0.0032
     36 C51        18.1714    3.3860   16.2013 C.ar        1 C03       0.0851
     37 C52        16.9347    3.6740   16.8243 C.ar        1 C03      -0.0395
     38 C53        15.7785    3.9206   16.0524 C.ar        1 C03      -0.0670
     39 O57        19.2544    3.0696   16.9786 O.3         1 C03      -0.3234
     40 C58        20.4411    3.8220   16.6694 C.3         1 C03       0.0592
     41 H1         12.6130    7.0142   10.0874 H           1 C03       0.0459
     42 H2         14.2470    5.7066   11.3165 H           1 C03       0.0504
     43 H3          9.6410    5.8931   12.8202 H           1 C03       0.0444
     44 H4         13.8678    2.2860   15.5783 H           1 C03       0.0449
     45 H5         12.1614    1.8728   15.5356 H           1 C03       0.0449
     46 H6         12.7265    3.1596   16.6184 H           1 C03       0.0449
     47 H7          9.9365    5.1235   15.4462 H           1 C03       0.0764
     48 H8         10.3225    3.5112   15.9411 H           1 C03       0.0764
     49 H9          9.8585    1.5964   14.3024 H           1 C03       0.0480
     50 H10         5.9032    1.7448   12.9065 H           1 C03       0.0487
     51 H11         5.8653    4.1172   13.2157 H           1 C03       0.0578
     52 H12         6.3812   -0.6033   12.3398 H           1 C03       0.0818
     53 H13         7.5240   -2.6417   11.5249 H           1 C03       0.0276
     54 H14         7.6063   -2.5140   13.2786 H           1 C03       0.0276
     55 H15         9.0297   -2.1180   12.3091 H           1 C03       0.0276
     56 H16        19.1233    3.1159   14.3222 H           1 C03       0.0476
     57 H17        16.8674    3.6949   17.8474 H           1 C03       0.0490
     58 H18        14.8941    4.1436   16.5118 H           1 C03       0.0582
     59 H19        20.8010    3.6062   15.6599 H           1 C03       0.0578
     60 H20        21.2193    3.5267   17.3725 H           1 C03       0.0578
     61 H21        20.2747    4.8973   16.7756 H           1 C03       0.0578
@<TRIPOS>BOND
     1     1     2  ar
     2     1     6  ar
     3     2     3  ar
     4     3     4  ar
     5     3     7   1
     6     4     5  ar
     7     4     9   1
     8     5     6  ar
     9     6    13   1
    10     7     8   2
    11     7    10   1
    12     8     9   1
    13     8    11   1
    14     9    12   1
    15    10    31   2
    16    10    34   1
    17    12    18   1
    18    13    14   1
    19    14    15   1
    20    14    16   1
    21    14    17   1
    22    18    19  ar
    23    18    23  ar
    24    19    20  ar
    25    20    21  ar
    26    20    25   1
    27    21    22  ar
    28    22    23  ar
    29    23    24   1
    30    25    26   1
    31    26    27   1
    32    26    28   1
    33    28    29  ar
    34    28    30  ar
    35    31    32   1
    36    32    33   1
    37    33    34  ar
    38    33    35  ar
    39    34    38  ar
    40    35    36  ar
    41    36    37  ar
    42    36    39   1
    43    37    38  ar
    44    39    40   1
    45     1    41   1
    46     2    42   1
    47     5    43   1
    48    11    44   1
    49    11    45   1
    50    11    46   1
    51    12    47   1
    52    12    48   1
    53    19    49   1
    54    21    50   1
    55    22    51   1
    56    26    52   1
    57    27    53   1
    58    27    54   1
    59    27    55   1
    60    35    56   1
    61    37    57   1
    62    38    58   1
    63    40    59   1
    64    40    60   1
    65    40    61   1
@<TRIPOS>SUBSTRUCTURE
     1  C03      1

