@<TRIPOS>MOLECULE
2p4y_ligand_086
    61    65
SMALL
GAST_HUCK
****
This file was generated by PARSER (from files_GN.cpp)

@<TRIPOS>ATOM
      1 C1         13.7203    6.3052    9.5355 C.ar        1 C03      -0.0494
      2 C2         12.3416    6.2980    9.8177 C.ar        1 C03      -0.0824
      3 C3         11.8352    5.3461   10.7236 C.ar        1 C03      -0.0320
      4 C4         12.6719    4.4469   11.3894 C.ar        1 C03       0.0592
      5 C5         14.0526    4.4558   11.0853 C.ar        1 C03      -0.0175
      6 C6         14.5899    5.3909   10.1729 C.ar        1 C03       0.0845
      7 C10        10.5332    5.0654   11.1075 C.2         1 C03      -0.0105
      8 C11        10.6043    3.9577   11.9645 C.2         1 C03       0.0574
      9 N12        11.9163    3.6502   12.1948 N.pl3       1 C03      -0.2466
     10 C13         9.3882    5.7418   10.6455 C.2         1 C03       0.0368
     11 C14         9.4267    3.1628   12.3853 C.3         1 C03      -0.0027
     12 C18        12.4315    2.5916   13.0508 C.3         1 C03       0.0846
     13 O19        15.9227    5.2850    9.8570 O.3         1 C03      -0.2340
     14 C20        16.7796    6.4191   10.1121 C.3         1 C03       0.5447
     15 F21        18.0755    5.9704   10.0581 F           1 C03      -0.1402
     16 F22        16.5970    7.0012   11.3440 F           1 C03      -0.1402
     17 F23        16.6397    7.3882    9.1484 F           1 C03      -0.1402
     18 C24        13.0872    3.0822   14.3069 C.ar        1 C03      -0.0091
     19 C27        14.4936    3.2496   14.3294 C.ar        1 C03      -0.0287
     20 C28        15.1582    3.7921   15.4442 C.ar        1 C03       0.0876
     21 C29        14.4376    4.0987   16.6089 C.ar        1 C03      -0.0391
     22 C30        13.0588    3.8562   16.6446 C.ar        1 C03      -0.0631
     23 C31        12.3821    3.3556   15.5121 C.ar        1 C03       0.0319
     24 CL1        10.7262    3.0686   15.7231 Cl          1 C03      -0.0872
     25 O36        16.4918    4.0633   15.3260 O.3         1 C03      -0.3024
     26 C37        16.8708    5.4443   15.1049 C.3         1 C03       0.1302
     27 C38        15.8450    6.3922   14.4124 C.3         1 C03      -0.0222
     28 C42        18.1119    5.3765   14.3151 C.2         1 C03       0.0683
     29 O44        19.2976    5.7323   14.8613 O.co2       1 C03      -0.5660
     30 O45        18.1065    4.7962   13.0918 O.co2       1 C03      -0.5660
     31 N46         9.1448    6.0510    9.3583 N.2         1 C03      -0.1679
     32 O47         8.0069    6.6908    9.2463 O.3         1 C03      -0.1876
     33 C48         7.4705    6.8331   10.4762 C.ar        1 C03       0.1433
     34 C49         8.3296    6.2424   11.3951 C.ar        1 C03       0.0134
     35 C50         6.2845    7.4648   10.8829 C.ar        1 C03       0.0032
     36 C51         5.9800    7.5141   12.2606 C.ar        1 C03       0.0851
     37 C52         6.8497    6.9021   13.1978 C.ar        1 C03      -0.0395
     38 C53         8.0383    6.2728   12.7706 C.ar        1 C03      -0.0670
     39 O57         4.8279    8.1216   12.6733 O.3         1 C03      -0.3234
     40 C58         5.0189    9.4810   13.1030 C.3         1 C03       0.0592
     41 H1         14.0821    6.9524    8.8349 H           1 C03       0.0459
     42 H2         11.7172    6.9486    9.3418 H           1 C03       0.0504
     43 H3         14.6665    3.7517   11.4795 H           1 C03       0.0444
     44 H4          8.5306    3.4356   11.8293 H           1 C03       0.0449
     45 H5          9.2264    3.3249   13.4386 H           1 C03       0.0449
     46 H6          9.6035    2.1014   12.2083 H           1 C03       0.0449
     47 H7         13.1314    1.9947   12.4590 H           1 C03       0.0764
     48 H8         11.6529    1.8828   13.3328 H           1 C03       0.0764
     49 H9         15.0625    2.9978   13.5221 H           1 C03       0.0480
     50 H10        14.9122    4.4763   17.4313 H           1 C03       0.0487
     51 H11        12.5612    4.0367   17.5187 H           1 C03       0.0578
     52 H12        17.1012    5.8655   16.0848 H           1 C03       0.0818
     53 H13        16.3109    7.3419   14.1470 H           1 C03       0.0276
     54 H14        15.0128    6.6077   15.0863 H           1 C03       0.0276
     55 H15        15.4487    5.9337   13.5037 H           1 C03       0.0276
     56 H16         5.6694    7.8941   10.1918 H           1 C03       0.0476
     57 H17         6.6355    6.9362   14.1960 H           1 C03       0.0490
     58 H18         8.6803    5.8631   13.4525 H           1 C03       0.0582
     59 H19         4.0458    9.8963   13.3673 H           1 C03       0.0578
     60 H20         5.4464   10.0987   12.3086 H           1 C03       0.0578
     61 H21         5.6595    9.5294   13.9868 H           1 C03       0.0578
@<TRIPOS>BOND
     1     1     2  ar
     2     1     6  ar
     3     2     3  ar
     4     3     4  ar
     5     3     7   1
     6     4     5  ar
     7     4     9   1
     8     5     6  ar
     9     6    13   1
    10     7     8   2
    11     7    10   1
    12     8     9   1
    13     8    11   1
    14     9    12   1
    15    10    31   2
    16    10    34   1
    17    12    18   1
    18    13    14   1
    19    14    15   1
    20    14    16   1
    21    14    17   1
    22    18    19  ar
    23    18    23  ar
    24    19    20  ar
    25    20    21  ar
    26    20    25   1
    27    21    22  ar
    28    22    23  ar
    29    23    24   1
    30    25    26   1
    31    26    27   1
    32    26    28   1
    33    28    29  ar
    34    28    30  ar
    35    31    32   1
    36    32    33   1
    37    33    34  ar
    38    33    35  ar
    39    34    38  ar
    40    35    36  ar
    41    36    37  ar
    42    36    39   1
    43    37    38  ar
    44    39    40   1
    45     1    41   1
    46     2    42   1
    47     5    43   1
    48    11    44   1
    49    11    45   1
    50    11    46   1
    51    12    47   1
    52    12    48   1
    53    19    49   1
    54    21    50   1
    55    22    51   1
    56    26    52   1
    57    27    53   1
    58    27    54   1
    59    27    55   1
    60    35    56   1
    61    37    57   1
    62    38    58   1
    63    40    59   1
    64    40    60   1
    65    40    61   1
@<TRIPOS>SUBSTRUCTURE
     1  C03      1

