@<TRIPOS>MOLECULE
2p4y_ligand_015
    61    65
SMALL
GAST_HUCK
****
This file was generated by PARSER (from files_GN.cpp)

@<TRIPOS>ATOM
      1 C1          5.4565    9.6781   13.5287 C.ar        1 C03      -0.0494
      2 C2          5.6437    8.7717   12.4659 C.ar        1 C03      -0.0824
      3 C3          6.4472    7.6252   12.6483 C.ar        1 C03      -0.0320
      4 C4          7.0801    7.4137   13.8772 C.ar        1 C03       0.0592
      5 C5          6.8878    8.3207   14.9499 C.ar        1 C03      -0.0175
      6 C6          6.0535    9.4448   14.7818 C.ar        1 C03       0.0845
      7 C10         6.8879    6.6337   11.7616 C.2         1 C03      -0.0105
      8 C11         7.8702    5.9068   12.4841 C.2         1 C03       0.0574
      9 N12         7.8965    6.3376   13.7832 N.pl3       1 C03      -0.2466
     10 C13         6.4817    6.4550   10.3929 C.2         1 C03       0.0368
     11 C14         8.8382    4.9045   11.9545 C.3         1 C03      -0.0027
     12 C18         8.7366    5.9304   14.9043 C.3         1 C03       0.0846
     13 O19         5.9158   10.3864   15.7738 O.3         1 C03      -0.2340
     14 C20         5.2285    9.9712   16.9723 C.3         1 C03       0.5447
     15 F21         5.0579   11.0927   17.7454 F           1 C03      -0.1402
     16 F22         5.9640    9.0765   17.7130 F           1 C03      -0.1402
     17 F23         3.9832    9.4381   16.7253 F           1 C03      -0.1402
     18 C24         9.2208    4.5182   14.9740 C.ar        1 C03      -0.0091
     19 C27         8.2537    3.4868   14.9436 C.ar        1 C03      -0.0287
     20 C28         8.6264    2.1314   14.8927 C.ar        1 C03       0.0876
     21 C29         9.9884    1.7935   15.0052 C.ar        1 C03      -0.0391
     22 C30        10.9633    2.7981   15.1089 C.ar        1 C03      -0.0631
     23 C31        10.5952    4.1590   15.0751 C.ar        1 C03       0.0319
     24 CL1        11.8576    5.2896   15.2006 Cl          1 C03      -0.0872
     25 O36         7.6681    1.1560   14.7796 O.3         1 C03      -0.3024
     26 C37         7.2409    0.7749   13.4440 C.3         1 C03       0.1302
     27 C38         8.3025   -0.0722   12.6834 C.3         1 C03      -0.0222
     28 C42         6.7040    1.9056   12.6461 C.2         1 C03       0.0683
     29 O44         5.5111    2.4632   12.9614 O.co2       1 C03      -0.5660
     30 O45         7.3457    2.3927   11.5571 O.co2       1 C03      -0.5660
     31 N46         7.2608    5.8424    9.4770 N.2         1 C03      -0.1679
     32 O47         6.6905    5.7496    8.3057 O.3         1 C03      -0.1876
     33 C48         5.4787    6.3191    8.3983 C.ar        1 C03       0.1433
     34 C49         5.3009    6.7735    9.7054 C.ar        1 C03       0.0134
     35 C50         4.5086    6.4718    7.3953 C.ar        1 C03       0.0032
     36 C51         3.3048    7.1352    7.7180 C.ar        1 C03       0.0851
     37 C52         3.0798    7.5592    9.0480 C.ar        1 C03      -0.0395
     38 C53         4.0719    7.3768   10.0423 C.ar        1 C03      -0.0670
     39 O57         2.3235    7.2684    6.7677 O.3         1 C03      -0.3234
     40 C58         2.4376    8.4642    5.9742 C.3         1 C03       0.0592
     41 H1          4.9052   10.5265   13.3810 H           1 C03       0.0459
     42 H2          5.2408    8.9934   11.5520 H           1 C03       0.0504
     43 H3          7.3740    8.1918   15.8377 H           1 C03       0.0444
     44 H4          8.7998    4.7523   10.8844 H           1 C03       0.0449
     45 H5          8.6787    3.9299   12.4120 H           1 C03       0.0449
     46 H6          9.8510    5.2384   12.1817 H           1 C03       0.0449
     47 H7          8.1791    6.0619   15.8386 H           1 C03       0.0764
     48 H8          9.5619    6.6441   14.9469 H           1 C03       0.0764
     49 H9          7.2556    3.7184   14.9103 H           1 C03       0.0480
     50 H10        10.2729    0.8150   15.0230 H           1 C03       0.0487
     51 H11        11.9417    2.5316   15.2144 H           1 C03       0.0578
     52 H12         6.3911    0.1078   13.5974 H           1 C03       0.0818
     53 H13         7.8796   -0.4776   11.7611 H           1 C03       0.0276
     54 H14         8.6249   -0.9082   13.3054 H           1 C03       0.0276
     55 H15         9.1782    0.5286   12.4260 H           1 C03       0.0276
     56 H16         4.6809    6.1202    6.4500 H           1 C03       0.0476
     57 H17         2.1904    8.0039    9.2904 H           1 C03       0.0490
     58 H18         3.8906    7.6878   10.9973 H           1 C03       0.0582
     59 H19         1.6415    8.4500    5.2299 H           1 C03       0.0578
     60 H20         3.3936    8.5108    5.4457 H           1 C03       0.0578
     61 H21         2.3148    9.3613    6.5860 H           1 C03       0.0578
@<TRIPOS>BOND
     1     1     2  ar
     2     1     6  ar
     3     2     3  ar
     4     3     4  ar
     5     3     7   1
     6     4     5  ar
     7     4     9   1
     8     5     6  ar
     9     6    13   1
    10     7     8   2
    11     7    10   1
    12     8     9   1
    13     8    11   1
    14     9    12   1
    15    10    31   2
    16    10    34   1
    17    12    18   1
    18    13    14   1
    19    14    15   1
    20    14    16   1
    21    14    17   1
    22    18    19  ar
    23    18    23  ar
    24    19    20  ar
    25    20    21  ar
    26    20    25   1
    27    21    22  ar
    28    22    23  ar
    29    23    24   1
    30    25    26   1
    31    26    27   1
    32    26    28   1
    33    28    29  ar
    34    28    30  ar
    35    31    32   1
    36    32    33   1
    37    33    34  ar
    38    33    35  ar
    39    34    38  ar
    40    35    36  ar
    41    36    37  ar
    42    36    39   1
    43    37    38  ar
    44    39    40   1
    45     1    41   1
    46     2    42   1
    47     5    43   1
    48    11    44   1
    49    11    45   1
    50    11    46   1
    51    12    47   1
    52    12    48   1
    53    19    49   1
    54    21    50   1
    55    22    51   1
    56    26    52   1
    57    27    53   1
    58    27    54   1
    59    27    55   1
    60    35    56   1
    61    37    57   1
    62    38    58   1
    63    40    59   1
    64    40    60   1
    65    40    61   1
@<TRIPOS>SUBSTRUCTURE
     1  C03      1

