@<TRIPOS>MOLECULE
2p4y_ligand_037
    61    65
SMALL
GAST_HUCK
****
This file was generated by PARSER (from files_GN.cpp)

@<TRIPOS>ATOM
      1 C1         14.8942   15.8770    6.1540 C.ar        1 C03      -0.0494
      2 C2         14.6353   14.6478    6.7886 C.ar        1 C03      -0.0824
      3 C3         14.0400   14.6455    8.0649 C.ar        1 C03      -0.0320
      4 C4         13.7119   15.8453    8.7052 C.ar        1 C03       0.0592
      5 C5         13.9632   17.0765    8.0653 C.ar        1 C03      -0.0175
      6 C6         14.5408   17.0921    6.7751 C.ar        1 C03       0.0845
      7 C10        13.7124   13.6017    8.9247 C.2         1 C03      -0.0105
      8 C11        13.1636   14.2027   10.0707 C.2         1 C03       0.0574
      9 N12        13.2035   15.5583    9.9289 N.pl3       1 C03      -0.2466
     10 C13        13.8875   12.2303    8.6312 C.2         1 C03       0.0368
     11 C14        12.5870   13.5007   11.2465 C.3         1 C03      -0.0027
     12 C18        12.7847   16.5162   10.9327 C.3         1 C03       0.0846
     13 O19        14.8549   18.2929    6.2011 O.3         1 C03      -0.2340
     14 C20        13.9936   18.7266    5.1291 C.3         1 C03       0.5447
     15 F21        14.4050   19.9796    4.7535 F           1 C03      -0.1402
     16 F22        12.6746   18.8194    5.5099 F           1 C03      -0.1402
     17 F23        14.0917   17.9203    4.0197 F           1 C03      -0.1402
     18 C24        13.6125   16.5827   12.1811 C.ar        1 C03      -0.0091
     19 C27        14.8814   15.9503   12.2623 C.ar        1 C03      -0.0287
     20 C28        15.6615   15.9999   13.4339 C.ar        1 C03       0.0876
     21 C29        15.1531   16.6520   14.5690 C.ar        1 C03      -0.0391
     22 C30        13.9196   17.3172   14.5039 C.ar        1 C03      -0.0631
     23 C31        13.1563   17.3018   13.3196 C.ar        1 C03       0.0319
     24 CL1        11.6903   18.1616   13.3393 Cl          1 C03      -0.0872
     25 O36        16.8845   15.3797   13.4750 O.3         1 C03      -0.3024
     26 C37        18.0331   16.1267   13.0059 C.3         1 C03       0.1302
     27 C38        18.3390   17.3861   13.8647 C.3         1 C03      -0.0222
     28 C42        17.9936   16.3954   11.5486 C.2         1 C03       0.0683
     29 O44        17.9633   15.3540   10.6851 O.co2       1 C03      -0.5660
     30 O45        17.8037   17.6380   11.0504 O.co2       1 C03      -0.5660
     31 N46        13.6947   11.7177    7.3989 N.2         1 C03      -0.1679
     32 O47        13.8839   10.4240    7.3947 O.3         1 C03      -0.1876
     33 C48        14.2141   10.0412    8.6442 C.ar        1 C03       0.1433
     34 C49        14.2554   11.1697    9.4572 C.ar        1 C03       0.0134
     35 C50        14.4826    8.7572    9.1429 C.ar        1 C03       0.0032
     36 C51        14.8123    8.6208   10.5096 C.ar        1 C03       0.0851
     37 C52        14.8786    9.7659   11.3385 C.ar        1 C03      -0.0395
     38 C53        14.6228   11.0528   10.8104 C.ar        1 C03      -0.0670
     39 O57        15.0384    7.3814   11.0419 O.3         1 C03      -0.3234
     40 C58        16.3976    6.9403   10.8774 C.3         1 C03       0.0592
     41 H1         15.3536   15.8812    5.2431 H           1 C03       0.0459
     42 H2         14.9010   13.7736    6.3320 H           1 C03       0.0504
     43 H3         13.7469   17.9605    8.5283 H           1 C03       0.0444
     44 H4         12.5700   12.4195   11.1154 H           1 C03       0.0449
     45 H5         11.5618   13.8419   11.4131 H           1 C03       0.0449
     46 H6         13.1821   13.7267   12.1329 H           1 C03       0.0449
     47 H7         11.7572   16.2680   11.2063 H           1 C03       0.0764
     48 H8         12.7479   17.5230   10.5193 H           1 C03       0.0764
     49 H9         15.2640   15.4495   11.4572 H           1 C03       0.0480
     50 H10        15.6931   16.6691   15.4356 H           1 C03       0.0487
     51 H11        13.5800   17.8158   15.3328 H           1 C03       0.0578
     52 H12        18.8872   15.4645   13.1523 H           1 C03       0.0818
     53 H13        19.2931   17.8284   13.5674 H           1 C03       0.0276
     54 H14        18.4049   17.1090   14.9191 H           1 C03       0.0276
     55 H15        17.5531   18.1369   13.7500 H           1 C03       0.0276
     56 H16        14.4294    7.9416    8.5323 H           1 C03       0.0476
     57 H17        15.1083    9.6567   12.3253 H           1 C03       0.0490
     58 H18        14.6965   11.8848   11.4011 H           1 C03       0.0582
     59 H19        16.5034    5.9682   11.3583 H           1 C03       0.0578
     60 H20        17.0979    7.6334   11.3490 H           1 C03       0.0578
     61 H21        16.6529    6.8275    9.8204 H           1 C03       0.0578
@<TRIPOS>BOND
     1     1     2  ar
     2     1     6  ar
     3     2     3  ar
     4     3     4  ar
     5     3     7   1
     6     4     5  ar
     7     4     9   1
     8     5     6  ar
     9     6    13   1
    10     7     8   2
    11     7    10   1
    12     8     9   1
    13     8    11   1
    14     9    12   1
    15    10    31   2
    16    10    34   1
    17    12    18   1
    18    13    14   1
    19    14    15   1
    20    14    16   1
    21    14    17   1
    22    18    19  ar
    23    18    23  ar
    24    19    20  ar
    25    20    21  ar
    26    20    25   1
    27    21    22  ar
    28    22    23  ar
    29    23    24   1
    30    25    26   1
    31    26    27   1
    32    26    28   1
    33    28    29  ar
    34    28    30  ar
    35    31    32   1
    36    32    33   1
    37    33    34  ar
    38    33    35  ar
    39    34    38  ar
    40    35    36  ar
    41    36    37  ar
    42    36    39   1
    43    37    38  ar
    44    39    40   1
    45     1    41   1
    46     2    42   1
    47     5    43   1
    48    11    44   1
    49    11    45   1
    50    11    46   1
    51    12    47   1
    52    12    48   1
    53    19    49   1
    54    21    50   1
    55    22    51   1
    56    26    52   1
    57    27    53   1
    58    27    54   1
    59    27    55   1
    60    35    56   1
    61    37    57   1
    62    38    58   1
    63    40    59   1
    64    40    60   1
    65    40    61   1
@<TRIPOS>SUBSTRUCTURE
     1  C03      1

