@<TRIPOS>MOLECULE
2p4y_ligand_051
    61    65
SMALL
GAST_HUCK
****
This file was generated by PARSER (from files_GN.cpp)

@<TRIPOS>ATOM
      1 C1          8.4286    6.5099    9.0456 C.ar        1 C03      -0.0494
      2 C2          9.6774    6.2666    9.6398 C.ar        1 C03      -0.0824
      3 C3          9.7573    6.2016   11.0439 C.ar        1 C03      -0.0320
      4 C4          8.6132    6.3306   11.8359 C.ar        1 C03       0.0592
      5 C5          7.3732    6.6401   11.2323 C.ar        1 C03      -0.0175
      6 C6          7.2766    6.7158    9.8292 C.ar        1 C03       0.0845
      7 C10        10.8401    5.9994   11.8881 C.2         1 C03      -0.0105
      8 C11        10.3171    6.0033   13.1925 C.2         1 C03       0.0574
      9 N12         8.9606    6.1271   13.1242 N.pl3       1 C03      -0.2466
     10 C13        12.1913    5.9097   11.4756 C.2         1 C03       0.0368
     11 C14        11.1336    6.0201   14.4385 C.3         1 C03      -0.0027
     12 C18         8.0464    6.0667   14.2392 C.3         1 C03       0.0846
     13 O19         6.0900    7.0633    9.2326 O.3         1 C03      -0.2340
     14 C20         5.2432    5.9711    8.8313 C.3         1 C03       0.5447
     15 F21         4.1128    6.5099    8.2754 F           1 C03      -0.1402
     16 F22         4.8472    5.2057    9.9002 F           1 C03      -0.1402
     17 F23         5.8272    5.1677    7.8809 F           1 C03      -0.1402
     18 C24         7.8327    4.6658   14.7178 C.ar        1 C03      -0.0091
     19 C27         8.4713    4.2606   15.9134 C.ar        1 C03      -0.0287
     20 C28         8.3002    2.9760   16.4550 C.ar        1 C03       0.0876
     21 C29         7.4395    2.0634   15.8151 C.ar        1 C03      -0.0391
     22 C30         6.7787    2.4377   14.6331 C.ar        1 C03      -0.0631
     23 C31         6.9725    3.7264   14.0783 C.ar        1 C03       0.0319
     24 CL1         6.0523    4.0809   12.6999 Cl          1 C03      -0.0872
     25 O36         8.9476    2.7017   17.6269 O.3         1 C03      -0.3024
     26 C37         9.9596    1.6693   17.6848 C.3         1 C03       0.1302
     27 C38        10.8089    1.4549   16.3994 C.3         1 C03      -0.0222
     28 C42         9.3604    0.4074   18.1606 C.2         1 C03       0.0683
     29 O44        10.1440   -0.5447   18.7160 O.co2       1 C03      -0.5660
     30 O45         8.0116    0.2182   18.1452 O.co2       1 C03      -0.5660
     31 N46        12.7052    6.6291   10.4546 N.2         1 C03      -0.1679
     32 O47        13.9940    6.4170   10.3384 O.3         1 C03      -0.1876
     33 C48        14.3650    5.5343   11.2900 C.ar        1 C03       0.1433
     34 C49        13.2354    5.1731   12.0179 C.ar        1 C03       0.0134
     35 C50        15.6296    5.0033   11.5831 C.ar        1 C03       0.0032
     36 C51        15.7524    4.0764   12.6452 C.ar        1 C03       0.0851
     37 C52        14.5939    3.6721   13.3615 C.ar        1 C03      -0.0395
     38 C53        13.3216    4.2244   13.0564 C.ar        1 C03      -0.0670
     39 O57        16.9774    3.5287   12.9040 O.3         1 C03      -0.3234
     40 C58        17.4267    3.7202   14.2574 C.3         1 C03       0.0592
     41 H1          8.3567    6.5439    8.0297 H           1 C03       0.0459
     42 H2         10.5043    6.1339    9.0609 H           1 C03       0.0504
     43 H3          6.5389    6.8026   11.7954 H           1 C03       0.0444
     44 H4         12.2003    6.1583   14.2286 H           1 C03       0.0449
     45 H5         11.0149    5.0785   14.9731 H           1 C03       0.0449
     46 H6         10.8028    6.8466   15.0850 H           1 C03       0.0449
     47 H7          7.0732    6.4879   13.9988 H           1 C03       0.0764
     48 H8          8.4289    6.7039   15.0367 H           1 C03       0.0764
     49 H9          9.0708    4.9189   16.4136 H           1 C03       0.0480
     50 H10         7.2914    1.1214   16.2154 H           1 C03       0.0487
     51 H11         6.1407    1.7660   14.1913 H           1 C03       0.0578
     52 H12        10.6533    2.0053   18.4604 H           1 C03       0.0818
     53 H13        11.6416    0.7612   16.5948 H           1 C03       0.0276
     54 H14        11.2234    2.4120   16.0680 H           1 C03       0.0276
     55 H15        10.1996    1.0385   15.5904 H           1 C03       0.0276
     56 H16        16.4474    5.2899   11.0410 H           1 C03       0.0476
     57 H17        14.6713    2.9803   14.1060 H           1 C03       0.0490
     58 H18        12.4913    3.9221   13.5554 H           1 C03       0.0582
     59 H19        18.4582    3.3743   14.3241 H           1 C03       0.0578
     60 H20        16.8271    3.1331   14.9560 H           1 C03       0.0578
     61 H21        17.4009    4.7747   14.5464 H           1 C03       0.0578
@<TRIPOS>BOND
     1     1     2  ar
     2     1     6  ar
     3     2     3  ar
     4     3     4  ar
     5     3     7   1
     6     4     5  ar
     7     4     9   1
     8     5     6  ar
     9     6    13   1
    10     7     8   2
    11     7    10   1
    12     8     9   1
    13     8    11   1
    14     9    12   1
    15    10    31   2
    16    10    34   1
    17    12    18   1
    18    13    14   1
    19    14    15   1
    20    14    16   1
    21    14    17   1
    22    18    19  ar
    23    18    23  ar
    24    19    20  ar
    25    20    21  ar
    26    20    25   1
    27    21    22  ar
    28    22    23  ar
    29    23    24   1
    30    25    26   1
    31    26    27   1
    32    26    28   1
    33    28    29  ar
    34    28    30  ar
    35    31    32   1
    36    32    33   1
    37    33    34  ar
    38    33    35  ar
    39    34    38  ar
    40    35    36  ar
    41    36    37  ar
    42    36    39   1
    43    37    38  ar
    44    39    40   1
    45     1    41   1
    46     2    42   1
    47     5    43   1
    48    11    44   1
    49    11    45   1
    50    11    46   1
    51    12    47   1
    52    12    48   1
    53    19    49   1
    54    21    50   1
    55    22    51   1
    56    26    52   1
    57    27    53   1
    58    27    54   1
    59    27    55   1
    60    35    56   1
    61    37    57   1
    62    38    58   1
    63    40    59   1
    64    40    60   1
    65    40    61   1
@<TRIPOS>SUBSTRUCTURE
     1  C03      1

