@<TRIPOS>MOLECULE
2p4y_ligand_032
    61    65
SMALL
GAST_HUCK
****
This file was generated by PARSER (from files_GN.cpp)

@<TRIPOS>ATOM
      1 C1         15.2492    5.7268   11.5941 C.ar        1 C03      -0.0494
      2 C2         14.0354    6.2063   11.0588 C.ar        1 C03      -0.0824
      3 C3         13.9176    7.5663   10.6913 C.ar        1 C03      -0.0320
      4 C4         15.0264    8.4181   10.7471 C.ar        1 C03       0.0592
      5 C5         16.2333    7.9308   11.3258 C.ar        1 C03      -0.0175
      6 C6         16.3304    6.6033   11.7961 C.ar        1 C03       0.0845
      7 C10        12.8486    8.2897   10.1458 C.2         1 C03      -0.0105
      8 C11        13.3972    9.5346    9.7468 C.2         1 C03       0.0574
      9 N12        14.7064    9.5995   10.1510 N.pl3       1 C03      -0.2466
     10 C13        11.4815    7.8721   10.0621 C.2         1 C03       0.0368
     11 C14        12.7156   10.6219    8.9891 C.3         1 C03      -0.0027
     12 C18        15.6606   10.6650    9.8468 C.3         1 C03       0.0846
     13 O19        17.5203    6.1801   12.3244 O.3         1 C03      -0.2340
     14 C20        17.5130    5.4873   13.5979 C.3         1 C03       0.5447
     15 F21        18.8052    5.4587   14.0674 F           1 C03      -0.1402
     16 F22        17.1045    4.1797   13.4660 F           1 C03      -0.1402
     17 F23        16.7498    6.1030   14.5658 F           1 C03      -0.1402
     18 C24        15.2333   12.1044    9.9720 C.ar        1 C03      -0.0091
     19 C27        15.4556   13.0074    8.8980 C.ar        1 C03      -0.0287
     20 C28        15.0317   14.3533    8.9571 C.ar        1 C03       0.0876
     21 C29        14.4157   14.8290   10.1275 C.ar        1 C03      -0.0391
     22 C30        14.2160   13.9658   11.2181 C.ar        1 C03      -0.0631
     23 C31        14.6287   12.6187   11.1521 C.ar        1 C03       0.0319
     24 CL1        14.3319   11.6640   12.5180 Cl          1 C03      -0.0872
     25 O36        15.2532   15.2405    7.9323 O.3         1 C03      -0.3024
     26 C37        14.2094   15.3591    6.9358 C.3         1 C03       0.1302
     27 C38        14.5596   14.4994    5.6973 C.3         1 C03      -0.0222
     28 C42        14.0737   16.7815    6.5540 C.2         1 C03       0.0683
     29 O44        13.0336   17.1889    5.7929 O.co2       1 C03      -0.5660
     30 O45        14.9520   17.7189    6.9774 O.co2       1 C03      -0.5660
     31 N46        10.6222    8.4066    9.1698 N.2         1 C03      -0.1679
     32 O47         9.3981    8.0041    9.3299 O.3         1 C03      -0.1876
     33 C48         9.3946    7.1471   10.3557 C.ar        1 C03       0.1433
     34 C49        10.6972    7.0194   10.8590 C.ar        1 C03       0.0134
     35 C50         8.2855    6.5199   10.9395 C.ar        1 C03       0.0032
     36 C51         8.4973    5.6595   12.0344 C.ar        1 C03       0.0851
     37 C52         9.8091    5.4950   12.5451 C.ar        1 C03      -0.0395
     38 C53        10.8932    6.2106   11.9974 C.ar        1 C03      -0.0670
     39 O57         7.4202    5.1660   12.7138 O.3         1 C03      -0.3234
     40 C58         7.1568    3.7699   12.4938 C.3         1 C03       0.0592
     41 H1         15.3454    4.7319   11.8176 H           1 C03       0.0459
     42 H2         13.2613    5.5658   10.8914 H           1 C03       0.0504
     43 H3         17.0430    8.5391   11.3933 H           1 C03       0.0444
     44 H4         11.7259   10.3864    8.6523 H           1 C03       0.0449
     45 H5         13.2918   10.8590    8.1006 H           1 C03       0.0449
     46 H6         12.6253   11.5036    9.6110 H           1 C03       0.0449
     47 H7         16.0042   10.4744    8.8257 H           1 C03       0.0764
     48 H8         16.5497   10.5802   10.4759 H           1 C03       0.0764
     49 H9         15.9330   12.6929    8.0492 H           1 C03       0.0480
     50 H10        14.1103   15.8025   10.1859 H           1 C03       0.0487
     51 H11        13.7536   14.3295   12.0550 H           1 C03       0.0578
     52 H12        13.2366   15.0433    7.3299 H           1 C03       0.0818
     53 H13        13.7989   14.6050    4.9199 H           1 C03       0.0276
     54 H14        14.6137   13.4458    5.9732 H           1 C03       0.0276
     55 H15        15.5262   14.8020    5.2869 H           1 C03       0.0276
     56 H16         7.3467    6.7335   10.6083 H           1 C03       0.0476
     57 H17         9.9690    4.8861   13.3540 H           1 C03       0.0490
     58 H18        11.8046    6.1408   12.4553 H           1 C03       0.0582
     59 H19         6.2904    3.4928   13.0949 H           1 C03       0.0578
     60 H20         8.0033    3.1575   12.8071 H           1 C03       0.0578
     61 H21         6.9215    3.5724   11.4453 H           1 C03       0.0578
@<TRIPOS>BOND
     1     1     2  ar
     2     1     6  ar
     3     2     3  ar
     4     3     4  ar
     5     3     7   1
     6     4     5  ar
     7     4     9   1
     8     5     6  ar
     9     6    13   1
    10     7     8   2
    11     7    10   1
    12     8     9   1
    13     8    11   1
    14     9    12   1
    15    10    31   2
    16    10    34   1
    17    12    18   1
    18    13    14   1
    19    14    15   1
    20    14    16   1
    21    14    17   1
    22    18    19  ar
    23    18    23  ar
    24    19    20  ar
    25    20    21  ar
    26    20    25   1
    27    21    22  ar
    28    22    23  ar
    29    23    24   1
    30    25    26   1
    31    26    27   1
    32    26    28   1
    33    28    29  ar
    34    28    30  ar
    35    31    32   1
    36    32    33   1
    37    33    34  ar
    38    33    35  ar
    39    34    38  ar
    40    35    36  ar
    41    36    37  ar
    42    36    39   1
    43    37    38  ar
    44    39    40   1
    45     1    41   1
    46     2    42   1
    47     5    43   1
    48    11    44   1
    49    11    45   1
    50    11    46   1
    51    12    47   1
    52    12    48   1
    53    19    49   1
    54    21    50   1
    55    22    51   1
    56    26    52   1
    57    27    53   1
    58    27    54   1
    59    27    55   1
    60    35    56   1
    61    37    57   1
    62    38    58   1
    63    40    59   1
    64    40    60   1
    65    40    61   1
@<TRIPOS>SUBSTRUCTURE
     1  C03      1

