@<TRIPOS>MOLECULE
2p4y_ligand_009
    61    65
SMALL
GAST_HUCK
****
This file was generated by PARSER (from files_GN.cpp)

@<TRIPOS>ATOM
      1 C1         12.8534   16.4006    7.0998 C.ar        1 C03      -0.0494
      2 C2         12.0630   15.3019    7.4775 C.ar        1 C03      -0.0824
      3 C3         12.6960   14.0997    7.8484 C.ar        1 C03      -0.0320
      4 C4         14.0878   14.0178    7.9586 C.ar        1 C03       0.0592
      5 C5         14.8752   15.1130    7.5451 C.ar        1 C03      -0.0175
      6 C6         14.2636   16.2932    7.0724 C.ar        1 C03       0.0845
      7 C10        12.1897   12.8493    8.1768 C.2         1 C03      -0.0105
      8 C11        13.2854   12.0561    8.5401 C.2         1 C03       0.0574
      9 N12        14.4333   12.8035    8.4594 N.pl3       1 C03      -0.2466
     10 C13        10.8325   12.4595    8.1107 C.2         1 C03       0.0368
     11 C14        13.1810   10.6080    8.8295 C.3         1 C03      -0.0027
     12 C18        15.8034   12.4559    8.7891 C.3         1 C03       0.0846
     13 O19        15.0717   17.3111    6.6334 O.3         1 C03      -0.2340
     14 C20        14.7883   17.8733    5.3339 C.3         1 C03       0.5447
     15 F21        15.9133   18.5344    4.9117 F           1 C03      -0.1402
     16 F22        13.7792   18.8034    5.3995 F           1 C03      -0.1402
     17 F23        14.4831   16.9382    4.3691 F           1 C03      -0.1402
     18 C24        16.0609   11.1756    9.5193 C.ar        1 C03      -0.0091
     19 C27        16.8184   10.1602    8.8944 C.ar        1 C03      -0.0287
     20 C28        17.0060    8.8907    9.4822 C.ar        1 C03       0.0876
     21 C29        16.4099    8.6410   10.7371 C.ar        1 C03      -0.0391
     22 C30        15.6771    9.6424   11.3911 C.ar        1 C03      -0.0631
     23 C31        15.5123   10.9139   10.8071 C.ar        1 C03       0.0319
     24 CL1        14.5812   12.0568   11.6480 Cl          1 C03      -0.0872
     25 O36        17.7174    7.9850    8.7256 O.3         1 C03      -0.3024
     26 C37        18.0423    6.6565    9.1689 C.3         1 C03       0.1302
     27 C38        19.0815    6.0979    8.1700 C.3         1 C03      -0.0222
     28 C42        16.8445    5.7839    9.2306 C.2         1 C03       0.0683
     29 O44        15.5983    6.3025    9.3588 O.co2       1 C03      -0.5660
     30 O45        16.9671    4.4320    9.2014 O.co2       1 C03      -0.5660
     31 N46        10.2265   11.6383    8.9925 N.2         1 C03      -0.1679
     32 O47         8.9692   11.4775    8.6783 O.3         1 C03      -0.1876
     33 C48         8.7062   12.1905    7.5565 C.ar        1 C03       0.1433
     34 C49         9.8854   12.8045    7.1552 C.ar        1 C03       0.0134
     35 C50         7.5127   12.3557    6.8331 C.ar        1 C03       0.0032
     36 C51         7.5262   13.1561    5.6674 C.ar        1 C03       0.0851
     37 C52         8.7452   13.7203    5.2190 C.ar        1 C03      -0.0395
     38 C53         9.9257   13.5592    5.9630 C.ar        1 C03      -0.0670
     39 O57         6.3641   13.3304    4.9691 O.3         1 C03      -0.3234
     40 C58         5.9332   14.7011    4.8900 C.3         1 C03       0.0592
     41 H1         12.3915   17.2684    6.8173 H           1 C03       0.0459
     42 H2         11.0443   15.3809    7.4738 H           1 C03       0.0504
     43 H3         15.8933   15.0359    7.5555 H           1 C03       0.0444
     44 H4         12.2597   10.1933    8.4233 H           1 C03       0.0449
     45 H5         13.1787   10.4295    9.9015 H           1 C03       0.0449
     46 H6         14.0050   10.0658    8.3578 H           1 C03       0.0449
     47 H7         16.2207   13.2394    9.4279 H           1 C03       0.0764
     48 H8         16.3715   12.4948    7.8531 H           1 C03       0.0764
     49 H9         17.2179   10.3221    7.9616 H           1 C03       0.0480
     50 H10        16.4887    7.7218   11.1805 H           1 C03       0.0487
     51 H11        15.2441    9.4211   12.2976 H           1 C03       0.0578
     52 H12        18.5114    6.6741   10.1476 H           1 C03       0.0818
     53 H13        19.4144    5.0992    8.4689 H           1 C03       0.0276
     54 H14        19.9519    6.7535    8.1488 H           1 C03       0.0276
     55 H15        18.6636    6.0418    7.1584 H           1 C03       0.0276
     56 H16         6.6505   11.9125    7.1537 H           1 C03       0.0476
     57 H17         8.7696   14.2659    4.3527 H           1 C03       0.0490
     58 H18        10.8038   13.9678    5.6321 H           1 C03       0.0582
     59 H19         4.9627   14.7256    4.3945 H           1 C03       0.0578
     60 H20         6.6296   15.3021    4.2983 H           1 C03       0.0578
     61 H21         5.8226   15.1457    5.8831 H           1 C03       0.0578
@<TRIPOS>BOND
     1     1     2  ar
     2     1     6  ar
     3     2     3  ar
     4     3     4  ar
     5     3     7   1
     6     4     5  ar
     7     4     9   1
     8     5     6  ar
     9     6    13   1
    10     7     8   2
    11     7    10   1
    12     8     9   1
    13     8    11   1
    14     9    12   1
    15    10    31   2
    16    10    34   1
    17    12    18   1
    18    13    14   1
    19    14    15   1
    20    14    16   1
    21    14    17   1
    22    18    19  ar
    23    18    23  ar
    24    19    20  ar
    25    20    21  ar
    26    20    25   1
    27    21    22  ar
    28    22    23  ar
    29    23    24   1
    30    25    26   1
    31    26    27   1
    32    26    28   1
    33    28    29  ar
    34    28    30  ar
    35    31    32   1
    36    32    33   1
    37    33    34  ar
    38    33    35  ar
    39    34    38  ar
    40    35    36  ar
    41    36    37  ar
    42    36    39   1
    43    37    38  ar
    44    39    40   1
    45     1    41   1
    46     2    42   1
    47     5    43   1
    48    11    44   1
    49    11    45   1
    50    11    46   1
    51    12    47   1
    52    12    48   1
    53    19    49   1
    54    21    50   1
    55    22    51   1
    56    26    52   1
    57    27    53   1
    58    27    54   1
    59    27    55   1
    60    35    56   1
    61    37    57   1
    62    38    58   1
    63    40    59   1
    64    40    60   1
    65    40    61   1
@<TRIPOS>SUBSTRUCTURE
     1  C03      1

