@<TRIPOS>MOLECULE
2p4y_ligand_079
    61    65
SMALL
GAST_HUCK
****
This file was generated by PARSER (from files_GN.cpp)

@<TRIPOS>ATOM
      1 C1         14.3426    7.7853    9.7369 C.ar        1 C03      -0.0494
      2 C2         13.8142    9.0889    9.7777 C.ar        1 C03      -0.0824
      3 C3         14.6438   10.1695    9.4206 C.ar        1 C03      -0.0320
      4 C4         15.9598    9.9882    8.9914 C.ar        1 C03       0.0592
      5 C5         16.4847    8.6738    8.9536 C.ar        1 C03      -0.0175
      6 C6         15.6854    7.5739    9.3484 C.ar        1 C03       0.0845
      7 C10        14.3853   11.5301    9.4130 C.2         1 C03      -0.0105
      8 C11        15.5509   12.1674    8.9809 C.2         1 C03       0.0574
      9 N12        16.4922   11.2115    8.7085 N.pl3       1 C03      -0.2466
     10 C13        13.1695   12.1150    9.7897 C.2         1 C03       0.0368
     11 C14        15.6800   13.6474    8.8836 C.3         1 C03      -0.0027
     12 C18        17.8619   11.4444    8.2884 C.3         1 C03       0.0846
     13 O19        16.2036    6.3086    9.2765 O.3         1 C03      -0.2340
     14 C20        16.3105    5.5867   10.5213 C.3         1 C03       0.5447
     15 F21        16.9956    4.4280   10.2555 F           1 C03      -0.1402
     16 F22        15.0802    5.2395   11.0295 F           1 C03      -0.1402
     17 F23        17.0220    6.2657   11.4826 F           1 C03      -0.1402
     18 C24        18.0129   12.4668    7.2079 C.ar        1 C03      -0.0091
     19 C27        17.5267   12.1503    5.9141 C.ar        1 C03      -0.0287
     20 C28        17.5830   13.0877    4.8631 C.ar        1 C03       0.0876
     21 C29        18.1716   14.3445    5.0872 C.ar        1 C03      -0.0391
     22 C30        18.7019   14.6623    6.3474 C.ar        1 C03      -0.0631
     23 C31        18.6323   13.7336    7.4065 C.ar        1 C03       0.0319
     24 CL1        19.3156   14.2295    8.8769 Cl          1 C03      -0.0872
     25 O36        17.1349   12.7742    3.6103 O.3         1 C03      -0.3024
     26 C37        15.7442   13.0568    3.3335 C.3         1 C03       0.1302
     27 C38        14.8702   11.7993    3.5684 C.3         1 C03      -0.0222
     28 C42        15.6741   13.4839    1.9261 C.2         1 C03       0.0683
     29 O44        15.1649   14.6934    1.5932 O.co2       1 C03      -0.5660
     30 O45        16.1555   12.6951    0.9370 O.co2       1 C03      -0.5660
     31 N46        12.7709   12.3281   11.0576 N.2         1 C03      -0.1679
     32 O47        11.5724   12.8563   11.0711 O.3         1 C03      -0.1876
     33 C48        11.1500   12.9970    9.7943 C.ar        1 C03       0.1433
     34 C49        12.1548   12.5440    8.9498 C.ar        1 C03       0.0134
     35 C50         9.9360   13.4797    9.2805 C.ar        1 C03       0.0032
     36 C51         9.7448   13.4921    7.8778 C.ar        1 C03       0.0851
     37 C52        10.7914   13.0696    7.0212 C.ar        1 C03      -0.0395
     38 C53        12.0030   12.5790    7.5514 C.ar        1 C03      -0.0670
     39 O57         8.5688   13.9620    7.3594 O.3         1 C03      -0.3234
     40 C58         7.7278   12.9342    6.8043 C.3         1 C03       0.0592
     41 H1         13.7503    6.9915    9.9856 H           1 C03       0.0459
     42 H2         12.8490    9.2447   10.0635 H           1 C03       0.0504
     43 H3         17.4436    8.5027    8.6485 H           1 C03       0.0444
     44 H4         14.8014   14.1636    9.2773 H           1 C03       0.0449
     45 H5         15.7953   13.9480    7.8420 H           1 C03       0.0449
     46 H6         16.5425   13.9828    9.4590 H           1 C03       0.0449
     47 H7         18.3231   10.5289    7.9088 H           1 C03       0.0764
     48 H8         18.4309   11.7056    9.1819 H           1 C03       0.0764
     49 H9         17.1209   11.2285    5.7315 H           1 C03       0.0480
     50 H10        18.2318   15.0265    4.3278 H           1 C03       0.0487
     51 H11        19.1372   15.5767    6.4850 H           1 C03       0.0578
     52 H12        15.3528   13.8736    3.9547 H           1 C03       0.0818
     53 H13        13.8344   11.9987    3.2846 H           1 C03       0.0276
     54 H14        14.8866   11.5172    4.6213 H           1 C03       0.0276
     55 H15        15.2407   10.9593    2.9766 H           1 C03       0.0276
     56 H16         9.2046   13.8102    9.9122 H           1 C03       0.0476
     57 H17        10.6703   13.1234    6.0076 H           1 C03       0.0490
     58 H18        12.7547   12.2625    6.9339 H           1 C03       0.0582
     59 H19         6.8189   13.4084    6.4348 H           1 C03       0.0578
     60 H20         7.4437   12.1957    7.5583 H           1 C03       0.0578
     61 H21         8.2134   12.4303    5.9646 H           1 C03       0.0578
@<TRIPOS>BOND
     1     1     2  ar
     2     1     6  ar
     3     2     3  ar
     4     3     4  ar
     5     3     7   1
     6     4     5  ar
     7     4     9   1
     8     5     6  ar
     9     6    13   1
    10     7     8   2
    11     7    10   1
    12     8     9   1
    13     8    11   1
    14     9    12   1
    15    10    31   2
    16    10    34   1
    17    12    18   1
    18    13    14   1
    19    14    15   1
    20    14    16   1
    21    14    17   1
    22    18    19  ar
    23    18    23  ar
    24    19    20  ar
    25    20    21  ar
    26    20    25   1
    27    21    22  ar
    28    22    23  ar
    29    23    24   1
    30    25    26   1
    31    26    27   1
    32    26    28   1
    33    28    29  ar
    34    28    30  ar
    35    31    32   1
    36    32    33   1
    37    33    34  ar
    38    33    35  ar
    39    34    38  ar
    40    35    36  ar
    41    36    37  ar
    42    36    39   1
    43    37    38  ar
    44    39    40   1
    45     1    41   1
    46     2    42   1
    47     5    43   1
    48    11    44   1
    49    11    45   1
    50    11    46   1
    51    12    47   1
    52    12    48   1
    53    19    49   1
    54    21    50   1
    55    22    51   1
    56    26    52   1
    57    27    53   1
    58    27    54   1
    59    27    55   1
    60    35    56   1
    61    37    57   1
    62    38    58   1
    63    40    59   1
    64    40    60   1
    65    40    61   1
@<TRIPOS>SUBSTRUCTURE
     1  C03      1

