@<TRIPOS>MOLECULE
2p4y_ligand_002
    61    65
SMALL
GAST_HUCK
****
This file was generated by PARSER (from files_GN.cpp)

@<TRIPOS>ATOM
      1 C1         14.0335   13.8990    5.0548 C.ar        1 C03      -0.0494
      2 C2         12.9610   13.4451    5.8434 C.ar        1 C03      -0.0824
      3 C3         13.0417   13.5434    7.2494 C.ar        1 C03      -0.0320
      4 C4         14.2085   14.0048    7.8554 C.ar        1 C03       0.0592
      5 C5         15.3005   14.4322    7.0709 C.ar        1 C03      -0.0175
      6 C6         15.1982   14.4100    5.6628 C.ar        1 C03       0.0845
      7 C10        12.1580   13.1893    8.2712 C.2         1 C03      -0.0105
      8 C11        12.8377   13.4318    9.4821 C.2         1 C03       0.0574
      9 N12        14.0787   13.9168    9.1986 N.pl3       1 C03      -0.2466
     10 C13        10.8607   12.6412    8.1071 C.2         1 C03       0.0368
     11 C14        12.3168   13.2020   10.8538 C.3         1 C03      -0.0027
     12 C18        15.1362   14.2245   10.1334 C.3         1 C03       0.0846
     13 O19        16.2505   14.8035    4.8770 O.3         1 C03      -0.2340
     14 C20        16.3129   16.2148    4.5846 C.3         1 C03       0.5447
     15 F21        17.3635   16.4036    3.7249 F           1 C03      -0.1402
     16 F22        16.5604   16.9704    5.7071 F           1 C03      -0.1402
     17 F23        15.1792   16.6822    3.9594 F           1 C03      -0.1402
     18 C24        16.3210   13.3133   10.0489 C.ar        1 C03      -0.0091
     19 C27        16.1341   11.9441    9.7339 C.ar        1 C03      -0.0287
     20 C28        17.2134   11.0420    9.6921 C.ar        1 C03       0.0876
     21 C29        18.5166   11.5088    9.9347 C.ar        1 C03      -0.0391
     22 C30        18.7248   12.8569   10.2659 C.ar        1 C03      -0.0631
     23 C31        17.6399   13.7553   10.3415 C.ar        1 C03       0.0319
     24 CL1        17.9958   15.3386   10.8471 Cl          1 C03      -0.0872
     25 O36        16.9737    9.7303    9.3669 O.3         1 C03      -0.3024
     26 C37        16.8343    8.8240   10.4863 C.3         1 C03       0.1302
     27 C38        16.9540    7.3869    9.9281 C.3         1 C03      -0.0222
     28 C42        15.5587    8.9683   11.2192 C.2         1 C03       0.0683
     29 O44        15.4981    8.5989   12.5150 O.co2       1 C03      -0.5660
     30 O45        14.3957    9.0547   10.5401 O.co2       1 C03      -0.5660
     31 N46        10.3650   11.6227    8.8418 N.2         1 C03      -0.1679
     32 O47         9.1511   11.3289    8.4611 O.3         1 C03      -0.1876
     33 C48         8.8001   12.1539    7.4509 C.ar        1 C03       0.1433
     34 C49         9.8622   13.0164    7.2125 C.ar        1 C03       0.0134
     35 C50         7.6116   12.2381    6.7137 C.ar        1 C03       0.0032
     36 C51         7.4914   13.2355    5.7184 C.ar        1 C03       0.0851
     37 C52         8.5809   14.1135    5.4737 C.ar        1 C03      -0.0395
     38 C53         9.7501   14.0303    6.2435 C.ar        1 C03      -0.0670
     39 O57         6.3415   13.2721    4.9633 O.3         1 C03      -0.3234
     40 C58         5.7670   14.5822    4.7992 C.3         1 C03       0.0592
     41 H1         13.9704   13.8417    4.0360 H           1 C03       0.0459
     42 H2         12.1465   13.0447    5.3864 H           1 C03       0.0504
     43 H3         16.1617   14.7544    7.5110 H           1 C03       0.0444
     44 H4         11.2794   12.8805   10.8676 H           1 C03       0.0449
     45 H5         12.3737   14.1270   11.4253 H           1 C03       0.0449
     46 H6         12.9168   12.4394   11.3502 H           1 C03       0.0449
     47 H7         14.7872   14.1925   11.1663 H           1 C03       0.0764
     48 H8         15.4290   15.2596    9.9444 H           1 C03       0.0764
     49 H9         15.2019   11.5776    9.5401 H           1 C03       0.0480
     50 H10        19.3109   10.8657    9.8919 H           1 C03       0.0487
     51 H11        19.6676   13.1777   10.4820 H           1 C03       0.0578
     52 H12        17.6650    8.9725   11.1844 H           1 C03       0.0818
     53 H13        16.9102    6.6540   10.7384 H           1 C03       0.0276
     54 H14        17.9074    7.2646    9.4055 H           1 C03       0.0276
     55 H15        16.1450    7.1803    9.2216 H           1 C03       0.0276
     56 H16         6.8368   11.5984    6.8996 H           1 C03       0.0476
     57 H17         8.5012   14.8342    4.7566 H           1 C03       0.0490
     58 H18        10.4999   14.6949    6.0820 H           1 C03       0.0582
     59 H19         4.8321   14.4739    4.2534 H           1 C03       0.0578
     60 H20         6.4200   15.2371    4.2177 H           1 C03       0.0578
     61 H21         5.5551   15.0461    5.7660 H           1 C03       0.0578
@<TRIPOS>BOND
     1     1     2  ar
     2     1     6  ar
     3     2     3  ar
     4     3     4  ar
     5     3     7   1
     6     4     5  ar
     7     4     9   1
     8     5     6  ar
     9     6    13   1
    10     7     8   2
    11     7    10   1
    12     8     9   1
    13     8    11   1
    14     9    12   1
    15    10    31   2
    16    10    34   1
    17    12    18   1
    18    13    14   1
    19    14    15   1
    20    14    16   1
    21    14    17   1
    22    18    19  ar
    23    18    23  ar
    24    19    20  ar
    25    20    21  ar
    26    20    25   1
    27    21    22  ar
    28    22    23  ar
    29    23    24   1
    30    25    26   1
    31    26    27   1
    32    26    28   1
    33    28    29  ar
    34    28    30  ar
    35    31    32   1
    36    32    33   1
    37    33    34  ar
    38    33    35  ar
    39    34    38  ar
    40    35    36  ar
    41    36    37  ar
    42    36    39   1
    43    37    38  ar
    44    39    40   1
    45     1    41   1
    46     2    42   1
    47     5    43   1
    48    11    44   1
    49    11    45   1
    50    11    46   1
    51    12    47   1
    52    12    48   1
    53    19    49   1
    54    21    50   1
    55    22    51   1
    56    26    52   1
    57    27    53   1
    58    27    54   1
    59    27    55   1
    60    35    56   1
    61    37    57   1
    62    38    58   1
    63    40    59   1
    64    40    60   1
    65    40    61   1
@<TRIPOS>SUBSTRUCTURE
     1  C03      1

