@<TRIPOS>MOLECULE
2p4y_ligand_064
    61    65
SMALL
GAST_HUCK
****
This file was generated by PARSER (from files_GN.cpp)

@<TRIPOS>ATOM
      1 C1         11.3954    6.9297    9.7859 C.ar        1 C03      -0.0494
      2 C2         10.0387    7.0707   10.1355 C.ar        1 C03      -0.0824
      3 C3          9.5883    6.5093   11.3469 C.ar        1 C03      -0.0320
      4 C4         10.4579    5.8233   12.2021 C.ar        1 C03       0.0592
      5 C5         11.8148    5.6686   11.8434 C.ar        1 C03      -0.0175
      6 C6         12.2886    6.2469   10.6416 C.ar        1 C03       0.0845
      7 C10         8.3365    6.5289   11.9466 C.2         1 C03      -0.0105
      8 C11         8.4778    5.8470   13.1601 C.2         1 C03       0.0574
      9 N12         9.7669    5.4325   13.3040 N.pl3       1 C03      -0.2466
     10 C13         7.1711    7.1536   11.4659 C.2         1 C03       0.0368
     11 C14         7.3771    5.6100   14.1214 C.3         1 C03      -0.0027
     12 C18        10.2918    4.7491   14.4654 C.3         1 C03       0.0846
     13 O19        13.5975    6.0923   10.2551 O.3         1 C03      -0.2340
     14 C20        14.5166    7.0396   10.8406 C.3         1 C03       0.5447
     15 F21        15.7401    6.8464   10.2525 F           1 C03      -0.1402
     16 F22        14.6789    6.8329   12.1922 F           1 C03      -0.1402
     17 F23        14.1580    8.3519   10.6166 F           1 C03      -0.1402
     18 C24         9.6110    3.4488   14.7396 C.ar        1 C03      -0.0091
     19 C27         9.9100    2.3482   13.8998 C.ar        1 C03      -0.0287
     20 C28         9.2874    1.0967   14.0683 C.ar        1 C03       0.0876
     21 C29         8.3830    0.9177   15.1322 C.ar        1 C03      -0.0391
     22 C30         8.0772    1.9825   15.9911 C.ar        1 C03      -0.0631
     23 C31         8.6844    3.2423   15.8008 C.ar        1 C03       0.0319
     24 CL1         8.1877    4.4561   16.8752 Cl          1 C03      -0.0872
     25 O36         9.6379    0.0496   13.2582 O.3         1 C03      -0.3024
     26 C37         8.8016   -0.2562   12.1185 C.3         1 C03       0.1302
     27 C38         8.3650    0.9765   11.2866 C.3         1 C03      -0.0222
     28 C42         7.6669   -1.1476   12.4654 C.2         1 C03       0.0683
     29 O44         7.7594   -2.4849   12.2651 O.co2       1 C03      -0.5660
     30 O45         6.5184   -0.6616   12.9896 O.co2       1 C03      -0.5660
     31 N46         6.5274    8.1329   12.1296 N.2         1 C03      -0.1679
     32 O47         5.4109    8.4371   11.5220 O.3         1 C03      -0.1876
     33 C48         5.2857    7.6480   10.4342 C.ar        1 C03       0.1433
     34 C49         6.4030    6.8237   10.3540 C.ar        1 C03       0.0134
     35 C50         4.2544    7.5724    9.4863 C.ar        1 C03       0.0032
     36 C51         4.3578    6.6287    8.4385 C.ar        1 C03       0.0851
     37 C52         5.5042    5.8040    8.3491 C.ar        1 C03      -0.0395
     38 C53         6.5319    5.8850    9.3139 C.ar        1 C03      -0.0670
     39 O57         3.3894    6.5416    7.4799 O.3         1 C03      -0.3234
     40 C58         2.0754    6.2811    8.0105 C.3         1 C03       0.0592
     41 H1         11.7316    7.3363    8.9100 H           1 C03       0.0459
     42 H2          9.3905    7.5811    9.5315 H           1 C03       0.0504
     43 H3         12.4620    5.1641   12.4425 H           1 C03       0.0444
     44 H4          6.4363    6.0579   13.7976 H           1 C03       0.0449
     45 H5          7.6422    6.0288   15.0998 H           1 C03       0.0449
     46 H6          7.2159    4.5340   14.2059 H           1 C03       0.0449
     47 H7         10.2167    5.4331   15.3098 H           1 C03       0.0764
     48 H8         11.3571    4.5345   14.3600 H           1 C03       0.0764
     49 H9         10.5850    2.4593   13.1421 H           1 C03       0.0480
     50 H10         7.9423    0.0070   15.2790 H           1 C03       0.0487
     51 H11         7.4052    1.8257   16.7505 H           1 C03       0.0578
     52 H12         9.4549   -0.8408   11.4745 H           1 C03       0.0818
     53 H13         7.9321    0.6573   10.3334 H           1 C03       0.0276
     54 H14         9.2253    1.6097   11.0662 H           1 C03       0.0276
     55 H15         7.6266    1.5781   11.8214 H           1 C03       0.0276
     56 H16         3.4418    8.1919    9.5615 H           1 C03       0.0476
     57 H17         5.5920    5.1287    7.5856 H           1 C03       0.0490
     58 H18         7.3492    5.2771    9.2658 H           1 C03       0.0582
     59 H19         1.3808    6.1941    7.1706 H           1 C03       0.0578
     60 H20         1.7300    7.1005    8.6495 H           1 C03       0.0578
     61 H21         2.0497    5.3422    8.5753 H           1 C03       0.0578
@<TRIPOS>BOND
     1     1     2  ar
     2     1     6  ar
     3     2     3  ar
     4     3     4  ar
     5     3     7   1
     6     4     5  ar
     7     4     9   1
     8     5     6  ar
     9     6    13   1
    10     7     8   2
    11     7    10   1
    12     8     9   1
    13     8    11   1
    14     9    12   1
    15    10    31   2
    16    10    34   1
    17    12    18   1
    18    13    14   1
    19    14    15   1
    20    14    16   1
    21    14    17   1
    22    18    19  ar
    23    18    23  ar
    24    19    20  ar
    25    20    21  ar
    26    20    25   1
    27    21    22  ar
    28    22    23  ar
    29    23    24   1
    30    25    26   1
    31    26    27   1
    32    26    28   1
    33    28    29  ar
    34    28    30  ar
    35    31    32   1
    36    32    33   1
    37    33    34  ar
    38    33    35  ar
    39    34    38  ar
    40    35    36  ar
    41    36    37  ar
    42    36    39   1
    43    37    38  ar
    44    39    40   1
    45     1    41   1
    46     2    42   1
    47     5    43   1
    48    11    44   1
    49    11    45   1
    50    11    46   1
    51    12    47   1
    52    12    48   1
    53    19    49   1
    54    21    50   1
    55    22    51   1
    56    26    52   1
    57    27    53   1
    58    27    54   1
    59    27    55   1
    60    35    56   1
    61    37    57   1
    62    38    58   1
    63    40    59   1
    64    40    60   1
    65    40    61   1
@<TRIPOS>SUBSTRUCTURE
     1  C03      1

