@<TRIPOS>MOLECULE
2p4y_ligand_033
    61    65
SMALL
GAST_HUCK
****
This file was generated by PARSER (from files_GN.cpp)

@<TRIPOS>ATOM
      1 C1          8.6713    3.6868   15.0273 C.ar        1 C03      -0.0494
      2 C2          8.3649    4.1870   13.7469 C.ar        1 C03      -0.0824
      3 C3          9.4032    4.3543   12.8077 C.ar        1 C03      -0.0320
      4 C4         10.7066    3.9528   13.1045 C.ar        1 C03       0.0592
      5 C5         11.0120    3.4380   14.3839 C.ar        1 C03      -0.0175
      6 C6          9.9903    3.2961   15.3430 C.ar        1 C03       0.0845
      7 C10         9.3932    4.8302   11.4965 C.2         1 C03      -0.0105
      8 C11        10.6814    4.5685   10.9892 C.2         1 C03       0.0574
      9 N12        11.4779    4.0969   12.0011 N.pl3       1 C03      -0.2466
     10 C13         8.2908    5.4460   10.8407 C.2         1 C03       0.0368
     11 C14        11.1034    4.7339    9.5729 C.3         1 C03      -0.0027
     12 C18        12.8740    3.7187   11.9190 C.3         1 C03       0.0846
     13 O19        10.2703    2.8057   16.5910 O.3         1 C03      -0.2340
     14 C20        10.2800    1.3694   16.7096 C.3         1 C03       0.5447
     15 F21        10.5227    1.0580   18.0227 F           1 C03      -0.1402
     16 F22        11.2813    0.7963   15.9616 F           1 C03      -0.1402
     17 F23         9.0707    0.8023   16.3778 F           1 C03      -0.1402
     18 C24        13.8359    4.7156   12.4885 C.ar        1 C03      -0.0091
     19 C27        13.9196    5.9784   11.8511 C.ar        1 C03      -0.0287
     20 C28        14.9450    6.8941   12.1446 C.ar        1 C03       0.0876
     21 C29        15.8391    6.6030   13.1873 C.ar        1 C03      -0.0391
     22 C30        15.7410    5.3901   13.8889 C.ar        1 C03      -0.0631
     23 C31        14.7606    4.4407   13.5352 C.ar        1 C03       0.0319
     24 CL1        14.7742    2.9982   14.4241 Cl          1 C03      -0.0872
     25 O36        15.0331    8.0807   11.4636 O.3         1 C03      -0.3024
     26 C37        15.5334    8.0106   10.1043 C.3         1 C03       0.1302
     27 C38        16.6594    9.0599    9.9380 C.3         1 C03      -0.0222
     28 C42        14.4156    8.2482    9.1660 C.2         1 C03       0.0683
     29 O44        14.1878    9.4512    8.5897 O.co2       1 C03      -0.5660
     30 O45        13.4525    7.3133    9.0242 O.co2       1 C03      -0.5660
     31 N46         7.9400    5.2699    9.5507 N.2         1 C03      -0.1679
     32 O47         6.8758    5.9729    9.2459 O.3         1 C03      -0.1876
     33 C48         6.4895    6.6515   10.3424 C.ar        1 C03       0.1433
     34 C49         7.3698    6.3532   11.3742 C.ar        1 C03       0.0134
     35 C50         5.4048    7.5295   10.5370 C.ar        1 C03       0.0032
     36 C51         5.1986    8.0988   11.8119 C.ar        1 C03       0.0851
     37 C52         6.0942    7.7814   12.8654 C.ar        1 C03      -0.0395
     38 C53         7.2051    6.9458   12.6358 C.ar        1 C03      -0.0670
     39 O57         4.0772    8.8619   12.0148 O.3         1 C03      -0.3234
     40 C58         4.2814   10.1467   12.6358 C.3         1 C03       0.0592
     41 H1          7.9295    3.5873   15.7206 H           1 C03       0.0459
     42 H2          7.3985    4.4068   13.5017 H           1 C03       0.0504
     43 H3         11.9607    3.1384   14.6062 H           1 C03       0.0444
     44 H4         10.3389    5.1938    8.9477 H           1 C03       0.0449
     45 H5         11.3317    3.7535    9.1506 H           1 C03       0.0449
     46 H6         11.9896    5.3570    9.4940 H           1 C03       0.0449
     47 H7         13.1660    3.5606   10.8778 H           1 C03       0.0764
     48 H8         12.9915    2.7394   12.3838 H           1 C03       0.0764
     49 H9         13.2523    6.2343   11.1313 H           1 C03       0.0480
     50 H10        16.5639    7.2727   13.4426 H           1 C03       0.0487
     51 H11        16.3979    5.2082   14.6549 H           1 C03       0.0578
     52 H12        15.9678    7.0357    9.8463 H           1 C03       0.0818
     53 H13        17.0448    9.0428    8.9132 H           1 C03       0.0276
     54 H14        17.4779    8.8288   10.6208 H           1 C03       0.0276
     55 H15        16.2937   10.0665   10.1624 H           1 C03       0.0276
     56 H16         4.7590    7.7247    9.7715 H           1 C03       0.0476
     57 H17         5.9285    8.1596   13.7989 H           1 C03       0.0490
     58 H18         7.8777    6.7628   13.3800 H           1 C03       0.0582
     59 H19         3.3394   10.6953   12.6117 H           1 C03       0.0578
     60 H20         5.0339   10.7392   12.1096 H           1 C03       0.0578
     61 H21         4.5762   10.0302   13.6807 H           1 C03       0.0578
@<TRIPOS>BOND
     1     1     2  ar
     2     1     6  ar
     3     2     3  ar
     4     3     4  ar
     5     3     7   1
     6     4     5  ar
     7     4     9   1
     8     5     6  ar
     9     6    13   1
    10     7     8   2
    11     7    10   1
    12     8     9   1
    13     8    11   1
    14     9    12   1
    15    10    31   2
    16    10    34   1
    17    12    18   1
    18    13    14   1
    19    14    15   1
    20    14    16   1
    21    14    17   1
    22    18    19  ar
    23    18    23  ar
    24    19    20  ar
    25    20    21  ar
    26    20    25   1
    27    21    22  ar
    28    22    23  ar
    29    23    24   1
    30    25    26   1
    31    26    27   1
    32    26    28   1
    33    28    29  ar
    34    28    30  ar
    35    31    32   1
    36    32    33   1
    37    33    34  ar
    38    33    35  ar
    39    34    38  ar
    40    35    36  ar
    41    36    37  ar
    42    36    39   1
    43    37    38  ar
    44    39    40   1
    45     1    41   1
    46     2    42   1
    47     5    43   1
    48    11    44   1
    49    11    45   1
    50    11    46   1
    51    12    47   1
    52    12    48   1
    53    19    49   1
    54    21    50   1
    55    22    51   1
    56    26    52   1
    57    27    53   1
    58    27    54   1
    59    27    55   1
    60    35    56   1
    61    37    57   1
    62    38    58   1
    63    40    59   1
    64    40    60   1
    65    40    61   1
@<TRIPOS>SUBSTRUCTURE
     1  C03      1

