@<TRIPOS>MOLECULE
2p4y_ligand_025
    61    65
SMALL
GAST_HUCK
****
This file was generated by PARSER (from files_GN.cpp)

@<TRIPOS>ATOM
      1 C1         14.8238   10.6238    9.3769 C.ar        1 C03      -0.0494
      2 C2         13.5180   11.0617    9.0827 C.ar        1 C03      -0.0824
      3 C3         13.2207   12.4363    9.1583 C.ar        1 C03      -0.0320
      4 C4         14.1986   13.3660    9.5164 C.ar        1 C03       0.0592
      5 C5         15.5059   12.9194    9.8117 C.ar        1 C03      -0.0175
      6 C6         15.8362   11.5494    9.7419 C.ar        1 C03       0.0845
      7 C10        12.0527   13.1416    8.8822 C.2         1 C03      -0.0105
      8 C11        12.3427   14.4896    9.1470 C.2         1 C03       0.0574
      9 N12        13.6557   14.6104    9.4916 N.pl3       1 C03      -0.2466
     10 C13        10.8495   12.5721    8.4138 C.2         1 C03       0.0368
     11 C14        11.3660   15.6057    9.1194 C.3         1 C03      -0.0027
     12 C18        14.3763   15.8537    9.6765 C.3         1 C03       0.0846
     13 O19        17.1498   11.2544   10.0343 O.3         1 C03      -0.2340
     14 C20        17.6426    9.9177   10.2043 C.3         1 C03       0.5447
     15 F21        18.9880   10.0189   10.4602 F           1 C03      -0.1402
     16 F22        17.5042    9.1601    9.0684 F           1 C03      -0.1402
     17 F23        17.0626    9.2905   11.2766 F           1 C03      -0.1402
     18 C24        14.0642   16.6222   10.9200 C.ar        1 C03      -0.0091
     19 C27        13.5376   17.9354   10.8083 C.ar        1 C03      -0.0287
     20 C28        13.2091   18.7029   11.9438 C.ar        1 C03       0.0876
     21 C29        13.4983   18.1851   13.2194 C.ar        1 C03      -0.0391
     22 C30        14.0421   16.8978   13.3575 C.ar        1 C03      -0.0631
     23 C31        14.3197   16.1099   12.2203 C.ar        1 C03       0.0319
     24 CL1        14.9666   14.5673   12.5014 Cl          1 C03      -0.0872
     25 O36        12.7050   19.9721   11.8444 O.3         1 C03      -0.3024
     26 C37        11.3053   20.1883   11.5397 C.3         1 C03       0.1302
     27 C38        10.2793   19.1203   12.0100 C.3         1 C03      -0.0222
     28 C42        11.1822   20.4543   10.0854 C.2         1 C03       0.0683
     29 O44        10.9725   21.7141    9.6267 O.co2       1 C03      -0.5660
     30 O45        11.2064   19.4466    9.1769 O.co2       1 C03      -0.5660
     31 N46        10.2571   11.4975    8.9737 N.2         1 C03      -0.1679
     32 O47         9.1571   11.1950    8.3395 O.3         1 C03      -0.1876
     33 C48         8.9880   12.0651    7.3193 C.ar        1 C03       0.1433
     34 C49        10.0607   12.9504    7.3287 C.ar        1 C03       0.0134
     35 C50         7.9600   12.1708    6.3678 C.ar        1 C03       0.0032
     36 C51         8.0102   13.1982    5.3990 C.ar        1 C03       0.0851
     37 C52         9.1347   14.0687    5.3834 C.ar        1 C03      -0.0395
     38 C53        10.1620   13.9481    6.3410 C.ar        1 C03      -0.0670
     39 O57         6.9421   13.2463    4.5272 O.3         1 C03      -0.3234
     40 C58         6.7888   14.3530    3.6269 C.3         1 C03       0.0592
     41 H1         15.0291    9.6256    9.3101 H           1 C03       0.0459
     42 H2         12.7999   10.3876    8.8107 H           1 C03       0.0504
     43 H3         16.2273   13.5889   10.0842 H           1 C03       0.0444
     44 H4         10.3630   15.2747    8.8563 H           1 C03       0.0449
     45 H5         11.6865   16.3629    8.4004 H           1 C03       0.0449
     46 H6         11.3026   16.0532   10.1115 H           1 C03       0.0449
     47 H7         14.1732   16.4547    8.7874 H           1 C03       0.0764
     48 H8         15.4535   15.7032    9.6785 H           1 C03       0.0764
     49 H9         13.3777   18.3416    9.8846 H           1 C03       0.0480
     50 H10        13.3003   18.7425   14.0539 H           1 C03       0.0487
     51 H11        14.2403   16.5425   14.2989 H           1 C03       0.0578
     52 H12        11.0335   21.1120   12.0548 H           1 C03       0.0818
     53 H13         9.2557   19.4366   11.7766 H           1 C03       0.0276
     54 H14        10.3599   18.9669   13.0891 H           1 C03       0.0276
     55 H15        10.4709   18.1679   11.5076 H           1 C03       0.0276
     56 H16         7.1776   11.5137    6.3911 H           1 C03       0.0476
     57 H17         9.2109   14.7966    4.6722 H           1 C03       0.0490
     58 H18        10.9620   14.5817    6.3197 H           1 C03       0.0582
     59 H19         5.8197   14.2592    3.1329 H           1 C03       0.0578
     60 H20         7.5625   14.3380    2.8582 H           1 C03       0.0578
     61 H21         6.8132   15.3033    4.1629 H           1 C03       0.0578
@<TRIPOS>BOND
     1     1     2  ar
     2     1     6  ar
     3     2     3  ar
     4     3     4  ar
     5     3     7   1
     6     4     5  ar
     7     4     9   1
     8     5     6  ar
     9     6    13   1
    10     7     8   2
    11     7    10   1
    12     8     9   1
    13     8    11   1
    14     9    12   1
    15    10    31   2
    16    10    34   1
    17    12    18   1
    18    13    14   1
    19    14    15   1
    20    14    16   1
    21    14    17   1
    22    18    19  ar
    23    18    23  ar
    24    19    20  ar
    25    20    21  ar
    26    20    25   1
    27    21    22  ar
    28    22    23  ar
    29    23    24   1
    30    25    26   1
    31    26    27   1
    32    26    28   1
    33    28    29  ar
    34    28    30  ar
    35    31    32   1
    36    32    33   1
    37    33    34  ar
    38    33    35  ar
    39    34    38  ar
    40    35    36  ar
    41    36    37  ar
    42    36    39   1
    43    37    38  ar
    44    39    40   1
    45     1    41   1
    46     2    42   1
    47     5    43   1
    48    11    44   1
    49    11    45   1
    50    11    46   1
    51    12    47   1
    52    12    48   1
    53    19    49   1
    54    21    50   1
    55    22    51   1
    56    26    52   1
    57    27    53   1
    58    27    54   1
    59    27    55   1
    60    35    56   1
    61    37    57   1
    62    38    58   1
    63    40    59   1
    64    40    60   1
    65    40    61   1
@<TRIPOS>SUBSTRUCTURE
     1  C03      1

