@<TRIPOS>MOLECULE
2p4y_ligand_048
    61    65
SMALL
GAST_HUCK
****
This file was generated by PARSER (from files_GN.cpp)

@<TRIPOS>ATOM
      1 C1         10.8289    6.1456    9.6345 C.ar        1 C03      -0.0494
      2 C2         11.9106    5.7897   10.4637 C.ar        1 C03      -0.0824
      3 C3         11.7210    5.7286   11.8641 C.ar        1 C03      -0.0320
      4 C4         10.5010    6.0936   12.4464 C.ar        1 C03       0.0592
      5 C5          9.4612    6.5523   11.6012 C.ar        1 C03      -0.0175
      6 C6          9.5843    6.5024   10.1921 C.ar        1 C03       0.0845
      7 C10        12.5917    5.3400   12.8806 C.2         1 C03      -0.0105
      8 C11        11.8419    5.4210   14.0654 C.2         1 C03       0.0574
      9 N12        10.5817    5.8863   13.7924 N.pl3       1 C03      -0.2466
     10 C13        13.9176    4.8803   12.6656 C.2         1 C03       0.0368
     11 C14        12.2990    4.9615   15.4003 C.3         1 C03      -0.0027
     12 C18         9.5681    6.0389   14.8302 C.3         1 C03       0.0846
     13 O19         8.5678    6.8033    9.3075 O.3         1 C03      -0.2340
     14 C20         7.1954    6.5453    9.6860 C.3         1 C03       0.5447
     15 F21         6.4395    6.5050    8.5454 F           1 C03      -0.1402
     16 F22         6.7134    7.5877   10.4479 F           1 C03      -0.1402
     17 F23         7.0004    5.3489   10.3402 F           1 C03      -0.1402
     18 C24         8.2121    6.5614   14.4829 C.ar        1 C03      -0.0091
     19 C27         7.7986    7.8279   14.9729 C.ar        1 C03      -0.0287
     20 C28         6.5982    8.4278   14.5402 C.ar        1 C03       0.0876
     21 C29         5.8049    7.7510   13.5954 C.ar        1 C03      -0.0391
     22 C30         6.1299    6.4424   13.2028 C.ar        1 C03      -0.0631
     23 C31         7.3165    5.8325   13.6553 C.ar        1 C03       0.0319
     24 CL1         7.6325    4.2540   13.1174 Cl          1 C03      -0.0872
     25 O36         6.2648    9.6862   14.9849 O.3         1 C03      -0.3024
     26 C37         5.1886    9.7720   15.9501 C.3         1 C03       0.1302
     27 C38         3.7846    9.7167   15.2813 C.3         1 C03      -0.0222
     28 C42         5.3658   11.0359   16.6931 C.2         1 C03       0.0683
     29 O44         6.4183   11.1839   17.5287 O.co2       1 C03      -0.5660
     30 O45         4.6028   12.1254   16.4417 O.co2       1 C03      -0.5660
     31 N46        14.2583    4.1446   11.5861 N.2         1 C03      -0.1679
     32 O47        15.5341    3.8646   11.5776 O.3         1 C03      -0.1876
     33 C48        16.0891    4.4191   12.6736 C.ar        1 C03       0.1433
     34 C49        15.0950    5.0809   13.3912 C.ar        1 C03       0.0134
     35 C50        17.4266    4.4019   13.0984 C.ar        1 C03       0.0032
     36 C51        17.7704    5.0494   14.3034 C.ar        1 C03       0.0851
     37 C52        16.7716    5.7465   15.0241 C.ar        1 C03      -0.0395
     38 C53        15.4310    5.7773   14.5680 C.ar        1 C03      -0.0670
     39 O57        19.0701    5.0473   14.7368 O.3         1 C03      -0.3234
     40 C58        19.3917    3.9333   15.5897 C.3         1 C03       0.0592
     41 H1         10.9480    6.1393    8.6179 H           1 C03       0.0459
     42 H2         12.8043    5.5501   10.0418 H           1 C03       0.0504
     43 H3          8.5908    6.9093   11.9918 H           1 C03       0.0444
     44 H4         13.2870    4.5023   15.3644 H           1 C03       0.0449
     45 H5         11.6045    4.2118   15.7853 H           1 C03       0.0449
     46 H6         12.3268    5.8142   16.0812 H           1 C03       0.0449
     47 H7         10.0155    6.6683   15.6052 H           1 C03       0.0764
     48 H8          9.3938    5.0646   15.2945 H           1 C03       0.0764
     49 H9          8.4055    8.3540   15.6058 H           1 C03       0.0480
     50 H10         4.9676    8.1957   13.2163 H           1 C03       0.0487
     51 H11         5.5135    5.9505   12.5535 H           1 C03       0.0578
     52 H12         5.2476    8.9584   16.6868 H           1 C03       0.0818
     53 H13         2.9997    9.9472   16.0072 H           1 C03       0.0276
     54 H14         3.5917    8.7186   14.8907 H           1 C03       0.0276
     55 H15         3.7211   10.4314   14.4572 H           1 C03       0.0276
     56 H16        18.1289    3.9194   12.5457 H           1 C03       0.0476
     57 H17        17.0250    6.2307   15.8891 H           1 C03       0.0490
     58 H18        14.7261    6.2973   15.0930 H           1 C03       0.0582
     59 H19        20.4537    3.9845   15.8346 H           1 C03       0.0578
     60 H20        19.2065    2.9755   15.0954 H           1 C03       0.0578
     61 H21        18.8248    3.9768   16.5224 H           1 C03       0.0578
@<TRIPOS>BOND
     1     1     2  ar
     2     1     6  ar
     3     2     3  ar
     4     3     4  ar
     5     3     7   1
     6     4     5  ar
     7     4     9   1
     8     5     6  ar
     9     6    13   1
    10     7     8   2
    11     7    10   1
    12     8     9   1
    13     8    11   1
    14     9    12   1
    15    10    31   2
    16    10    34   1
    17    12    18   1
    18    13    14   1
    19    14    15   1
    20    14    16   1
    21    14    17   1
    22    18    19  ar
    23    18    23  ar
    24    19    20  ar
    25    20    21  ar
    26    20    25   1
    27    21    22  ar
    28    22    23  ar
    29    23    24   1
    30    25    26   1
    31    26    27   1
    32    26    28   1
    33    28    29  ar
    34    28    30  ar
    35    31    32   1
    36    32    33   1
    37    33    34  ar
    38    33    35  ar
    39    34    38  ar
    40    35    36  ar
    41    36    37  ar
    42    36    39   1
    43    37    38  ar
    44    39    40   1
    45     1    41   1
    46     2    42   1
    47     5    43   1
    48    11    44   1
    49    11    45   1
    50    11    46   1
    51    12    47   1
    52    12    48   1
    53    19    49   1
    54    21    50   1
    55    22    51   1
    56    26    52   1
    57    27    53   1
    58    27    54   1
    59    27    55   1
    60    35    56   1
    61    37    57   1
    62    38    58   1
    63    40    59   1
    64    40    60   1
    65    40    61   1
@<TRIPOS>SUBSTRUCTURE
     1  C03      1

