@<TRIPOS>MOLECULE
2p4y_ligand_067
    61    65
SMALL
GAST_HUCK
****
This file was generated by PARSER (from files_GN.cpp)

@<TRIPOS>ATOM
      1 C1         10.7424   11.2056    8.3649 C.ar        1 C03      -0.0494
      2 C2         11.5965   10.2001    8.8601 C.ar        1 C03      -0.0824
      3 C3         12.9446   10.5065    9.1377 C.ar        1 C03      -0.0320
      4 C4         13.4395   11.8029    8.9657 C.ar        1 C03       0.0592
      5 C5         12.5778   12.8119    8.4672 C.ar        1 C03      -0.0175
      6 C6         11.2278   12.5160    8.1790 C.ar        1 C03       0.0845
      7 C10        13.9991    9.7171    9.5958 C.2         1 C03      -0.0105
      8 C11        15.1204   10.5539    9.6535 C.2         1 C03       0.0574
      9 N12        14.7448   11.8275    9.3310 N.pl3       1 C03      -0.2466
     10 C13        13.9151    8.3358    9.8746 C.2         1 C03       0.0368
     11 C14        16.5204   10.1162    9.8762 C.3         1 C03      -0.0027
     12 C18        15.6372   12.9662    9.2897 C.3         1 C03       0.0846
     13 O19        10.4253   13.5065    7.6801 O.3         1 C03      -0.2340
     14 C20         9.3994   13.9781    8.5779 C.3         1 C03       0.5447
     15 F21         8.8510   15.1045    8.0186 F           1 C03      -0.1402
     16 F22         9.8723   14.3452    9.8173 F           1 C03      -0.1402
     17 F23         8.4014   13.0454    8.7294 F           1 C03      -0.1402
     18 C24        15.0370   14.2751    9.6873 C.ar        1 C03      -0.0091
     19 C27        14.9957   15.3152    8.7294 C.ar        1 C03      -0.0287
     20 C28        14.4093   16.5619    9.0164 C.ar        1 C03       0.0876
     21 C29        13.8704   16.7911   10.2964 C.ar        1 C03      -0.0391
     22 C30        13.9067   15.7747   11.2679 C.ar        1 C03      -0.0631
     23 C31        14.5037   14.5271   10.9805 C.ar        1 C03       0.0319
     24 CL1        14.5154   13.3666   12.2170 Cl          1 C03      -0.0872
     25 O36        14.4640   17.5253    8.0468 O.3         1 C03      -0.3024
     26 C37        13.2165   18.0946    7.5820 C.3         1 C03       0.1302
     27 C38        12.3062   17.0570    6.8694 C.3         1 C03      -0.0222
     28 C42        13.5375   19.2060    6.6585 C.2         1 C03       0.0683
     29 O44        12.5450   19.9175    6.0744 O.co2       1 C03      -0.5660
     30 O45        14.8168   19.5447    6.3677 O.co2       1 C03      -0.5660
     31 N46        13.1293    7.4966    9.1737 N.2         1 C03      -0.1679
     32 O47        13.1982    6.2819    9.6541 O.3         1 C03      -0.1876
     33 C48        14.0438    6.2905   10.7086 C.ar        1 C03       0.1433
     34 C49        14.5239    7.5834   10.8782 C.ar        1 C03       0.0134
     35 C50        14.4217    5.2390   11.5585 C.ar        1 C03       0.0032
     36 C51        15.3112    5.5083   12.6228 C.ar        1 C03       0.0851
     37 C52        15.8096    6.8246   12.7988 C.ar        1 C03      -0.0395
     38 C53        15.4106    7.8732   11.9363 C.ar        1 C03      -0.0670
     39 O57        15.7419    4.4712   13.4027 O.3         1 C03      -0.3234
     40 C58        15.2963    4.5101   14.7705 C.3         1 C03       0.0592
     41 H1          9.7727   10.9824    8.1303 H           1 C03       0.0459
     42 H2         11.2326    9.2562    9.0026 H           1 C03       0.0504
     43 H3         12.9188   13.7568    8.3028 H           1 C03       0.0444
     44 H4         16.6116    9.0289    9.8683 H           1 C03       0.0449
     45 H5         16.8760   10.4948   10.8362 H           1 C03       0.0449
     46 H6         17.1580   10.5041    9.0804 H           1 C03       0.0449
     47 H7         16.0463   13.0000    8.2743 H           1 C03       0.0764
     48 H8         16.4893   12.8226    9.9589 H           1 C03       0.0764
     49 H9         15.3837   15.1677    7.7916 H           1 C03       0.0480
     50 H10        13.4452   17.6926   10.5200 H           1 C03       0.0487
     51 H11        13.4937   15.9493   12.1902 H           1 C03       0.0578
     52 H12        12.6723   18.5214    8.4249 H           1 C03       0.0818
     53 H13        11.3878   17.5246    6.5034 H           1 C03       0.0276
     54 H14        12.0234   16.2701    7.5668 H           1 C03       0.0276
     55 H15        12.8303   16.6032    6.0247 H           1 C03       0.0276
     56 H16        14.0621    4.2957   11.4054 H           1 C03       0.0476
     57 H17        16.4628    7.0159   13.5607 H           1 C03       0.0490
     58 H18        15.7482    8.8250   12.0870 H           1 C03       0.0582
     59 H19        15.6150    3.5861   15.2542 H           1 C03       0.0578
     60 H20        14.2069    4.5740   14.8385 H           1 C03       0.0578
     61 H21        15.7476    5.3485   15.3082 H           1 C03       0.0578
@<TRIPOS>BOND
     1     1     2  ar
     2     1     6  ar
     3     2     3  ar
     4     3     4  ar
     5     3     7   1
     6     4     5  ar
     7     4     9   1
     8     5     6  ar
     9     6    13   1
    10     7     8   2
    11     7    10   1
    12     8     9   1
    13     8    11   1
    14     9    12   1
    15    10    31   2
    16    10    34   1
    17    12    18   1
    18    13    14   1
    19    14    15   1
    20    14    16   1
    21    14    17   1
    22    18    19  ar
    23    18    23  ar
    24    19    20  ar
    25    20    21  ar
    26    20    25   1
    27    21    22  ar
    28    22    23  ar
    29    23    24   1
    30    25    26   1
    31    26    27   1
    32    26    28   1
    33    28    29  ar
    34    28    30  ar
    35    31    32   1
    36    32    33   1
    37    33    34  ar
    38    33    35  ar
    39    34    38  ar
    40    35    36  ar
    41    36    37  ar
    42    36    39   1
    43    37    38  ar
    44    39    40   1
    45     1    41   1
    46     2    42   1
    47     5    43   1
    48    11    44   1
    49    11    45   1
    50    11    46   1
    51    12    47   1
    52    12    48   1
    53    19    49   1
    54    21    50   1
    55    22    51   1
    56    26    52   1
    57    27    53   1
    58    27    54   1
    59    27    55   1
    60    35    56   1
    61    37    57   1
    62    38    58   1
    63    40    59   1
    64    40    60   1
    65    40    61   1
@<TRIPOS>SUBSTRUCTURE
     1  C03      1

