@<TRIPOS>MOLECULE
2p4y_ligand_041
    61    65
SMALL
GAST_HUCK
****
This file was generated by PARSER (from files_GN.cpp)

@<TRIPOS>ATOM
      1 C1         17.1023   11.1205   10.1946 C.ar        1 C03      -0.0494
      2 C2         15.9285   10.3370   10.1540 C.ar        1 C03      -0.0824
      3 C3         14.7417   10.8915    9.6258 C.ar        1 C03      -0.0320
      4 C4         14.7017   12.2362    9.2513 C.ar        1 C03       0.0592
      5 C5         15.8767   13.0152    9.2753 C.ar        1 C03      -0.0175
      6 C6         17.0857   12.4490    9.7202 C.ar        1 C03       0.0845
      7 C10        13.4732   10.3545    9.3941 C.2         1 C03      -0.0105
      8 C11        12.6940   11.4187    8.9010 C.2         1 C03       0.0574
      9 N12        13.4372   12.5586    8.8882 N.pl3       1 C03      -0.2466
     10 C13        13.0543    9.0229    9.6461 C.2         1 C03       0.0368
     11 C14        11.3076   11.3163    8.3830 C.3         1 C03      -0.0027
     12 C18        12.9871   13.8885    8.5241 C.3         1 C03       0.0846
     13 O19        18.2191   13.2142    9.7440 O.3         1 C03      -0.2340
     14 C20        19.0891   13.0500    8.6030 C.3         1 C03       0.5447
     15 F21        20.1475   13.9095    8.7631 F           1 C03      -0.1402
     16 F22        18.4767   13.3785    7.4134 F           1 C03      -0.1402
     17 F23        19.6025   11.7750    8.5152 F           1 C03      -0.1402
     18 C24        13.0747   14.8833    9.6390 C.ar        1 C03      -0.0091
     19 C27        14.0330   15.9297    9.5672 C.ar        1 C03      -0.0287
     20 C28        14.1973   16.8618   10.6107 C.ar        1 C03       0.0876
     21 C29        13.3673   16.7805   11.7419 C.ar        1 C03      -0.0391
     22 C30        12.3862   15.7799   11.8234 C.ar        1 C03      -0.0631
     23 C31        12.2375   14.8336   10.7888 C.ar        1 C03       0.0319
     24 CL1        11.0353   13.6551   10.9999 Cl          1 C03      -0.0872
     25 O36        15.2226   17.7662   10.5368 O.3         1 C03      -0.3024
     26 C37        15.0154   18.9700    9.7559 C.3         1 C03       0.1302
     27 C38        14.5034   20.1488   10.6301 C.3         1 C03      -0.0222
     28 C42        14.2215   18.7426    8.5241 C.2         1 C03       0.0683
     29 O44        12.8738   18.8834    8.5155 O.co2       1 C03      -0.5660
     30 O45        14.7755   18.0388    7.5082 O.co2       1 C03      -0.5660
     31 N46        11.8064    8.7117   10.0473 N.2         1 C03      -0.1679
     32 O47        11.6812    7.4270   10.2643 O.3         1 C03      -0.1876
     33 C48        12.8653    6.8420   10.0071 C.ar        1 C03       0.1433
     34 C49        13.7590    7.8215    9.5892 C.ar        1 C03       0.0134
     35 C50        13.2358    5.4898   10.1067 C.ar        1 C03       0.0032
     36 C51        14.5506    5.1079    9.7365 C.ar        1 C03       0.0851
     37 C52        15.4518    6.1041    9.2877 C.ar        1 C03      -0.0395
     38 C53        15.0634    7.4613    9.1982 C.ar        1 C03      -0.0670
     39 O57        15.0578    3.8325    9.8340 O.3         1 C03      -0.3234
     40 C58        14.1653    2.7106    9.8875 C.3         1 C03       0.0592
     41 H1         17.9708   10.7268   10.5660 H           1 C03       0.0459
     42 H2         15.9587    9.3718   10.4921 H           1 C03       0.0504
     43 H3         15.8656   13.9789    8.9556 H           1 C03       0.0444
     44 H4         10.9482   10.2898    8.3351 H           1 C03       0.0449
     45 H5         11.2717   11.7250    7.3731 H           1 C03       0.0449
     46 H6         10.6253   11.8858    9.0116 H           1 C03       0.0449
     47 H7         11.9500   13.8977    8.1767 H           1 C03       0.0764
     48 H8         13.5842   14.2023    7.6660 H           1 C03       0.0764
     49 H9         14.6511   15.9914    8.7557 H           1 C03       0.0480
     50 H10        13.4809   17.4455   12.5105 H           1 C03       0.0487
     51 H11        11.7815   15.7497   12.6525 H           1 C03       0.0578
     52 H12        16.0149   19.2712    9.4197 H           1 C03       0.0818
     53 H13        14.4924   21.0739   10.0435 H           1 C03       0.0276
     54 H14        15.1706   20.2857   11.4876 H           1 C03       0.0276
     55 H15        13.4911   19.9549   10.9971 H           1 C03       0.0276
     56 H16        12.5572    4.8106   10.4546 H           1 C03       0.0476
     57 H17        16.4054    5.8405    9.0288 H           1 C03       0.0490
     58 H18        15.7238    8.1647    8.8639 H           1 C03       0.0582
     59 H19        14.7565    1.7943    9.8457 H           1 C03       0.0578
     60 H20        13.4716    2.7093    9.0462 H           1 C03       0.0578
     61 H21        13.6112    2.7091   10.8247 H           1 C03       0.0578
@<TRIPOS>BOND
     1     1     2  ar
     2     1     6  ar
     3     2     3  ar
     4     3     4  ar
     5     3     7   1
     6     4     5  ar
     7     4     9   1
     8     5     6  ar
     9     6    13   1
    10     7     8   2
    11     7    10   1
    12     8     9   1
    13     8    11   1
    14     9    12   1
    15    10    31   2
    16    10    34   1
    17    12    18   1
    18    13    14   1
    19    14    15   1
    20    14    16   1
    21    14    17   1
    22    18    19  ar
    23    18    23  ar
    24    19    20  ar
    25    20    21  ar
    26    20    25   1
    27    21    22  ar
    28    22    23  ar
    29    23    24   1
    30    25    26   1
    31    26    27   1
    32    26    28   1
    33    28    29  ar
    34    28    30  ar
    35    31    32   1
    36    32    33   1
    37    33    34  ar
    38    33    35  ar
    39    34    38  ar
    40    35    36  ar
    41    36    37  ar
    42    36    39   1
    43    37    38  ar
    44    39    40   1
    45     1    41   1
    46     2    42   1
    47     5    43   1
    48    11    44   1
    49    11    45   1
    50    11    46   1
    51    12    47   1
    52    12    48   1
    53    19    49   1
    54    21    50   1
    55    22    51   1
    56    26    52   1
    57    27    53   1
    58    27    54   1
    59    27    55   1
    60    35    56   1
    61    37    57   1
    62    38    58   1
    63    40    59   1
    64    40    60   1
    65    40    61   1
@<TRIPOS>SUBSTRUCTURE
     1  C03      1

