@<TRIPOS>MOLECULE
2p4y_ligand_092
    61    65
SMALL
GAST_HUCK
****
This file was generated by PARSER (from files_GN.cpp)

@<TRIPOS>ATOM
      1 C1          1.0672   10.6180   12.5766 C.ar        1 C03      -0.0494
      2 C2          0.9090    9.5839   11.6333 C.ar        1 C03      -0.0824
      3 C3          2.0507    8.8925   11.1685 C.ar        1 C03      -0.0320
      4 C4          3.3355    9.2067   11.6196 C.ar        1 C03       0.0592
      5 C5          3.4844   10.2856   12.5185 C.ar        1 C03      -0.0175
      6 C6          2.3602   10.9865   13.0040 C.ar        1 C03       0.0845
      7 C10         2.1784    7.8996   10.2079 C.2         1 C03      -0.0105
      8 C11         3.5474    7.5964   10.1297 C.2         1 C03       0.0574
      9 N12         4.2369    8.3792   11.0186 N.pl3       1 C03      -0.2466
     10 C13         1.0810    7.3687    9.4973 C.2         1 C03       0.0368
     11 C14         4.1135    6.5510    9.2420 C.3         1 C03      -0.0027
     12 C18         5.6850    8.4134   11.1964 C.3         1 C03       0.0846
     13 O19         2.5130   11.9651   13.9521 O.3         1 C03      -0.2340
     14 C20         2.8845   13.2725   13.4738 C.3         1 C03       0.5447
     15 F21         3.0088   14.0864   14.5727 F           1 C03      -0.1402
     16 F22         1.9224   13.8157   12.6561 F           1 C03      -0.1402
     17 F23         4.0960   13.2855   12.8241 F           1 C03      -0.1402
     18 C24         6.2303    8.0436   12.5469 C.ar        1 C03      -0.0091
     19 C27         6.4137    9.0680   13.5078 C.ar        1 C03      -0.0287
     20 C28         6.7562    8.7939   14.8392 C.ar        1 C03       0.0876
     21 C29         7.2181    7.5078   15.1739 C.ar        1 C03      -0.0391
     22 C30         7.2011    6.4948   14.2005 C.ar        1 C03      -0.0631
     23 C31         6.6818    6.7376   12.9076 C.ar        1 C03       0.0319
     24 CL1         6.7184    5.4238   11.8369 Cl          1 C03      -0.0872
     25 O36         6.5745    9.7643   15.7924 O.3         1 C03      -0.3024
     26 C37         5.1750   10.0209   16.1051 C.3         1 C03       0.1302
     27 C38         4.9847   11.5332   16.3559 C.3         1 C03      -0.0222
     28 C42         4.7552    9.2283   17.2795 C.2         1 C03       0.0683
     29 O44         3.5786    8.5588   17.2740 O.co2       1 C03      -0.5660
     30 O45         5.4387    9.3290   18.4419 O.co2       1 C03      -0.5660
     31 N46        -0.0734    6.9992   10.0868 N.2         1 C03      -0.1679
     32 O47        -0.9430    6.6051    9.1921 O.3         1 C03      -0.1876
     33 C48        -0.3803    6.7228    7.9719 C.ar        1 C03       0.1433
     34 C49         0.9116    7.2137    8.1263 C.ar        1 C03       0.0134
     35 C50        -0.9163    6.4531    6.7015 C.ar        1 C03       0.0032
     36 C51        -0.1187    6.7044    5.5635 C.ar        1 C03       0.0851
     37 C52         1.1957    7.2054    5.7159 C.ar        1 C03      -0.0395
     38 C53         1.7189    7.4740    7.0004 C.ar        1 C03      -0.0670
     39 O57        -0.6013    6.4102    4.3188 O.3         1 C03      -0.3234
     40 C58        -1.3459    7.4819    3.7183 C.3         1 C03       0.0592
     41 H1          0.2417   11.1112   12.9336 H           1 C03       0.0459
     42 H2         -0.0266    9.3499   11.2895 H           1 C03       0.0504
     43 H3          4.3926   10.6113   12.7981 H           1 C03       0.0444
     44 H4          3.3464    6.0533    8.6523 H           1 C03       0.0449
     45 H5          4.5992    5.7848    9.8398 H           1 C03       0.0449
     46 H6          4.8406    6.9924    8.5589 H           1 C03       0.0449
     47 H7          6.0101    9.4264   10.9515 H           1 C03       0.0764
     48 H8          6.1826    7.7912   10.4548 H           1 C03       0.0764
     49 H9          6.2760   10.0466   13.2599 H           1 C03       0.0480
     50 H10         7.5331    7.3036   16.1291 H           1 C03       0.0487
     51 H11         7.5361    5.5616   14.4590 H           1 C03       0.0578
     52 H12         4.5026    9.7726   15.2721 H           1 C03       0.0818
     53 H13         3.9378   11.7513   16.5811 H           1 C03       0.0276
     54 H14         5.2647   12.0886   15.4598 H           1 C03       0.0276
     55 H15         5.6067   11.8715   17.1859 H           1 C03       0.0276
     56 H16        -1.8666    6.0950    6.6108 H           1 C03       0.0476
     57 H17         1.7748    7.3768    4.8934 H           1 C03       0.0490
     58 H18         2.6628    7.8502    7.1106 H           1 C03       0.0582
     59 H19        -1.7044    7.1455    2.7439 H           1 C03       0.0578
     60 H20        -0.7177    8.3619    3.5647 H           1 C03       0.0578
     61 H21        -2.2153    7.7536    4.3226 H           1 C03       0.0578
@<TRIPOS>BOND
     1     1     2  ar
     2     1     6  ar
     3     2     3  ar
     4     3     4  ar
     5     3     7   1
     6     4     5  ar
     7     4     9   1
     8     5     6  ar
     9     6    13   1
    10     7     8   2
    11     7    10   1
    12     8     9   1
    13     8    11   1
    14     9    12   1
    15    10    31   2
    16    10    34   1
    17    12    18   1
    18    13    14   1
    19    14    15   1
    20    14    16   1
    21    14    17   1
    22    18    19  ar
    23    18    23  ar
    24    19    20  ar
    25    20    21  ar
    26    20    25   1
    27    21    22  ar
    28    22    23  ar
    29    23    24   1
    30    25    26   1
    31    26    27   1
    32    26    28   1
    33    28    29  ar
    34    28    30  ar
    35    31    32   1
    36    32    33   1
    37    33    34  ar
    38    33    35  ar
    39    34    38  ar
    40    35    36  ar
    41    36    37  ar
    42    36    39   1
    43    37    38  ar
    44    39    40   1
    45     1    41   1
    46     2    42   1
    47     5    43   1
    48    11    44   1
    49    11    45   1
    50    11    46   1
    51    12    47   1
    52    12    48   1
    53    19    49   1
    54    21    50   1
    55    22    51   1
    56    26    52   1
    57    27    53   1
    58    27    54   1
    59    27    55   1
    60    35    56   1
    61    37    57   1
    62    38    58   1
    63    40    59   1
    64    40    60   1
    65    40    61   1
@<TRIPOS>SUBSTRUCTURE
     1  C03      1

