@<TRIPOS>MOLECULE
2p4y_ligand_093
    61    65
SMALL
GAST_HUCK
****
This file was generated by PARSER (from files_GN.cpp)

@<TRIPOS>ATOM
      1 C1          7.5196    5.4489   12.3878 C.ar        1 C03      -0.0494
      2 C2          6.5187    6.0098   11.5757 C.ar        1 C03      -0.0824
      3 C3          5.8227    7.1520   12.0244 C.ar        1 C03      -0.0320
      4 C4          6.0979    7.7062   13.2766 C.ar        1 C03       0.0592
      5 C5          7.0968    7.1373   14.0980 C.ar        1 C03      -0.0175
      6 C6          7.8197    6.0115   13.6486 C.ar        1 C03       0.0845
      7 C10         4.8160    7.9149   11.4306 C.2         1 C03      -0.0105
      8 C11         4.5590    8.9619   12.3361 C.2         1 C03       0.0574
      9 N12         5.2923    8.7785   13.4793 N.pl3       1 C03      -0.2466
     10 C13         4.2463    7.6621   10.1532 C.2         1 C03       0.0368
     11 C14         3.7660   10.1728   12.0074 C.3         1 C03      -0.0027
     12 C18         5.3878    9.5863   14.6803 C.3         1 C03       0.0846
     13 O19         8.7599    5.3983   14.4355 O.3         1 C03      -0.2340
     14 C20         9.9844    6.1264   14.6555 C.3         1 C03       0.5447
     15 F21        10.8372    5.2772   15.3114 F           1 C03      -0.1402
     16 F22         9.7986    7.2224   15.4662 F           1 C03      -0.1402
     17 F23        10.5945    6.5165   13.4833 F           1 C03      -0.1402
     18 C24         4.2057   10.4086   15.0501 C.ar        1 C03      -0.0091
     19 C27         4.3862   11.7782   15.3577 C.ar        1 C03      -0.0287
     20 C28         3.2818   12.6251   15.5444 C.ar        1 C03       0.0876
     21 C29         1.9841   12.0852   15.5537 C.ar        1 C03      -0.0391
     22 C30         1.7907   10.7114   15.3403 C.ar        1 C03      -0.0631
     23 C31         2.8887    9.8681   15.0715 C.ar        1 C03       0.0319
     24 CL1         2.5625    8.2311   14.7743 Cl          1 C03      -0.0872
     25 O36         3.4656   13.9729   15.7107 O.3         1 C03      -0.3024
     26 C37         3.7041   14.7112   14.4852 C.3         1 C03       0.1302
     27 C38         5.2128   14.7423   14.1299 C.3         1 C03      -0.0222
     28 C42         3.1938   16.0881   14.6507 C.2         1 C03       0.0683
     29 O44         3.1228   16.9184   13.5846 O.co2       1 C03      -0.5660
     30 O45         2.7729   16.5554   15.8479 O.co2       1 C03      -0.5660
     31 N46         4.9219    7.1307    9.1161 N.2         1 C03      -0.1679
     32 O47         4.1564    7.0025    8.0578 O.3         1 C03      -0.1876
     33 C48         2.9228    7.4516    8.3721 C.ar        1 C03       0.1433
     34 C49         2.9377    7.8673    9.6992 C.ar        1 C03       0.0134
     35 C50         1.7536    7.5264    7.5887 C.ar        1 C03       0.0032
     36 C51         0.5701    8.0338    8.1719 C.ar        1 C03       0.0851
     37 C52         0.5824    8.4492    9.5296 C.ar        1 C03      -0.0395
     38 C53         1.7582    8.3406   10.3028 C.ar        1 C03      -0.0670
     39 O57        -0.5214    8.1720    7.3458 O.3         1 C03      -0.3234
     40 C58        -1.6353    7.2971    7.6039 C.3         1 C03       0.0592
     41 H1          8.0301    4.6238   12.0624 H           1 C03       0.0459
     42 H2          6.3012    5.5852   10.6742 H           1 C03       0.0504
     43 H3          7.3093    7.5349   15.0175 H           1 C03       0.0444
     44 H4          3.5091   10.2212   10.9540 H           1 C03       0.0449
     45 H5          4.3506   11.0599   12.2350 H           1 C03       0.0449
     46 H6          2.8392   10.1944   12.5845 H           1 C03       0.0449
     47 H7          6.2843   10.2059   14.5702 H           1 C03       0.0764
     48 H8          5.5618    8.9494   15.5503 H           1 C03       0.0764
     49 H9          5.3264   12.1783   15.3931 H           1 C03       0.0480
     50 H10         1.1777   12.6920   15.7096 H           1 C03       0.0487
     51 H11         0.8423   10.3271   15.3721 H           1 C03       0.0578
     52 H12         3.1579   14.2730   13.6425 H           1 C03       0.0818
     53 H13         5.3956   15.3726   13.2565 H           1 C03       0.0276
     54 H14         5.5701   13.7408   13.8948 H           1 C03       0.0276
     55 H15         5.7967   15.1297   14.9654 H           1 C03       0.0276
     56 H16         1.7681    7.2218    6.6148 H           1 C03       0.0476
     57 H17        -0.2619    8.8286    9.9614 H           1 C03       0.0490
     58 H18         1.7447    8.6044   11.2906 H           1 C03       0.0582
     59 H19        -2.3585    7.4022    6.7867 H           1 C03       0.0578
     60 H20        -2.1268    7.5696    8.5366 H           1 C03       0.0578
     61 H21        -1.3222    6.2481    7.6457 H           1 C03       0.0578
@<TRIPOS>BOND
     1     1     2  ar
     2     1     6  ar
     3     2     3  ar
     4     3     4  ar
     5     3     7   1
     6     4     5  ar
     7     4     9   1
     8     5     6  ar
     9     6    13   1
    10     7     8   2
    11     7    10   1
    12     8     9   1
    13     8    11   1
    14     9    12   1
    15    10    31   2
    16    10    34   1
    17    12    18   1
    18    13    14   1
    19    14    15   1
    20    14    16   1
    21    14    17   1
    22    18    19  ar
    23    18    23  ar
    24    19    20  ar
    25    20    21  ar
    26    20    25   1
    27    21    22  ar
    28    22    23  ar
    29    23    24   1
    30    25    26   1
    31    26    27   1
    32    26    28   1
    33    28    29  ar
    34    28    30  ar
    35    31    32   1
    36    32    33   1
    37    33    34  ar
    38    33    35  ar
    39    34    38  ar
    40    35    36  ar
    41    36    37  ar
    42    36    39   1
    43    37    38  ar
    44    39    40   1
    45     1    41   1
    46     2    42   1
    47     5    43   1
    48    11    44   1
    49    11    45   1
    50    11    46   1
    51    12    47   1
    52    12    48   1
    53    19    49   1
    54    21    50   1
    55    22    51   1
    56    26    52   1
    57    27    53   1
    58    27    54   1
    59    27    55   1
    60    35    56   1
    61    37    57   1
    62    38    58   1
    63    40    59   1
    64    40    60   1
    65    40    61   1
@<TRIPOS>SUBSTRUCTURE
     1  C03      1

