@<TRIPOS>MOLECULE
2p4y_ligand_023
    61    65
SMALL
GAST_HUCK
****
This file was generated by PARSER (from files_GN.cpp)

@<TRIPOS>ATOM
      1 C1          5.5430   10.2175   14.0673 C.ar        1 C03      -0.0494
      2 C2          5.7232    9.3164   12.9973 C.ar        1 C03      -0.0824
      3 C3          6.4208    8.1103   13.2254 C.ar        1 C03      -0.0320
      4 C4          7.0030    7.8490   14.4721 C.ar        1 C03       0.0592
      5 C5          6.8409    8.7644   15.5358 C.ar        1 C03      -0.0175
      6 C6          6.0714    9.9310   15.3453 C.ar        1 C03       0.0845
      7 C10         6.7250    7.0298   12.3973 C.2         1 C03      -0.0105
      8 C11         7.4648    6.1321   13.1980 C.2         1 C03       0.0574
      9 N12         7.6788    6.6720   14.4376 N.pl3       1 C03      -0.2466
     10 C13         6.4317    6.8845   11.0148 C.2         1 C03       0.0368
     11 C14         7.8551    4.7642   12.7644 C.3         1 C03      -0.0027
     12 C18         8.4383    6.1948   15.5855 C.3         1 C03       0.0846
     13 O19         5.8575   10.7980   16.3813 O.3         1 C03      -0.2340
     14 C20         4.8300   10.3952   17.3112 C.3         1 C03       0.5447
     15 F21         4.6520   11.4265   18.1974 F           1 C03      -0.1402
     16 F22         5.1952    9.2853   18.0390 F           1 C03      -0.1402
     17 F23         3.6171   10.1625   16.7015 F           1 C03      -0.1402
     18 C24         9.2299    4.9344   15.4826 C.ar        1 C03      -0.0091
     19 C27         8.7060    3.7408   16.0360 C.ar        1 C03      -0.0287
     20 C28         9.3919    2.5162   15.9191 C.ar        1 C03       0.0876
     21 C29        10.6196    2.4686   15.2404 C.ar        1 C03      -0.0391
     22 C30        11.1819    3.6459   14.7207 C.ar        1 C03      -0.0631
     23 C31        10.4930    4.8740   14.8331 C.ar        1 C03       0.0319
     24 CL1        11.2318    6.2366   14.1520 Cl          1 C03      -0.0872
     25 O36         8.8089    1.3634   16.3654 O.3         1 C03      -0.3024
     26 C37         8.9521    1.0866   17.7772 C.3         1 C03       0.1302
     27 C38        10.3863    0.5923   18.0968 C.3         1 C03      -0.0222
     28 C42         7.9389    0.0796   18.1573 C.2         1 C03       0.0683
     29 O44         7.8302   -0.3397   19.4373 O.co2       1 C03      -0.5660
     30 O45         7.0030   -0.3530   17.2828 O.co2       1 C03      -0.5660
     31 N46         7.3155    6.3322   10.1546 N.2         1 C03      -0.1679
     32 O47         6.8256    6.2645    8.9471 O.3         1 C03      -0.1876
     33 C48         5.5792    6.7810    8.9732 C.ar        1 C03       0.1433
     34 C49         5.2931    7.1966   10.2698 C.ar        1 C03       0.0134
     35 C50         4.6406    6.8899    7.9281 C.ar        1 C03       0.0032
     36 C51         3.3718    7.4516    8.2081 C.ar        1 C03       0.0851
     37 C52         3.0745    7.8610    9.5314 C.ar        1 C03      -0.0395
     38 C53         4.0301    7.7395   10.5659 C.ar        1 C03      -0.0670
     39 O57         2.3504    7.5649    7.2883 O.3         1 C03      -0.3234
     40 C58         2.6950    7.9365    5.9409 C.3         1 C03       0.0592
     41 H1          5.0093   11.0745   13.9163 H           1 C03       0.0459
     42 H2          5.3475    9.5358   12.0680 H           1 C03       0.0504
     43 H3          7.2362    8.5620   16.4555 H           1 C03       0.0444
     44 H4          7.3367    4.4551   11.8512 H           1 C03       0.0449
     45 H5          7.5719    4.0408   13.5305 H           1 C03       0.0449
     46 H6          8.9366    4.7198   12.6014 H           1 C03       0.0449
     47 H7          7.7417    6.1116   16.4200 H           1 C03       0.0764
     48 H8          9.1368    6.9817   15.8743 H           1 C03       0.0764
     49 H9          7.7938    3.7432   16.4974 H           1 C03       0.0480
     50 H10        11.1070    1.5767   15.1215 H           1 C03       0.0487
     51 H11        12.0834    3.5951   14.2361 H           1 C03       0.0578
     52 H12         8.7421    1.9806   18.3753 H           1 C03       0.0818
     53 H13        10.4619    0.2416   19.1271 H           1 C03       0.0276
     54 H14        11.0951    1.4111   17.9644 H           1 C03       0.0276
     55 H15        10.6708   -0.2227   17.4307 H           1 C03       0.0276
     56 H16         4.8732    6.5558    6.9892 H           1 C03       0.0476
     57 H17         2.1462    8.2359    9.7532 H           1 C03       0.0490
     58 H18         3.7959    8.0141   11.5194 H           1 C03       0.0582
     59 H19         1.7723    8.2045    5.4191 H           1 C03       0.0578
     60 H20         3.1657    7.0956    5.4197 H           1 C03       0.0578
     61 H21         3.3648    8.7996    5.9134 H           1 C03       0.0578
@<TRIPOS>BOND
     1     1     2  ar
     2     1     6  ar
     3     2     3  ar
     4     3     4  ar
     5     3     7   1
     6     4     5  ar
     7     4     9   1
     8     5     6  ar
     9     6    13   1
    10     7     8   2
    11     7    10   1
    12     8     9   1
    13     8    11   1
    14     9    12   1
    15    10    31   2
    16    10    34   1
    17    12    18   1
    18    13    14   1
    19    14    15   1
    20    14    16   1
    21    14    17   1
    22    18    19  ar
    23    18    23  ar
    24    19    20  ar
    25    20    21  ar
    26    20    25   1
    27    21    22  ar
    28    22    23  ar
    29    23    24   1
    30    25    26   1
    31    26    27   1
    32    26    28   1
    33    28    29  ar
    34    28    30  ar
    35    31    32   1
    36    32    33   1
    37    33    34  ar
    38    33    35  ar
    39    34    38  ar
    40    35    36  ar
    41    36    37  ar
    42    36    39   1
    43    37    38  ar
    44    39    40   1
    45     1    41   1
    46     2    42   1
    47     5    43   1
    48    11    44   1
    49    11    45   1
    50    11    46   1
    51    12    47   1
    52    12    48   1
    53    19    49   1
    54    21    50   1
    55    22    51   1
    56    26    52   1
    57    27    53   1
    58    27    54   1
    59    27    55   1
    60    35    56   1
    61    37    57   1
    62    38    58   1
    63    40    59   1
    64    40    60   1
    65    40    61   1
@<TRIPOS>SUBSTRUCTURE
     1  C03      1

