@<TRIPOS>MOLECULE
2p4y_ligand_085
    61    65
SMALL
GAST_HUCK
****
This file was generated by PARSER (from files_GN.cpp)

@<TRIPOS>ATOM
      1 C1          5.7810    9.5327   13.0660 C.ar        1 C03      -0.0494
      2 C2          5.8333    8.6167   11.9976 C.ar        1 C03      -0.0824
      3 C3          6.3716    7.3330   12.2086 C.ar        1 C03      -0.0320
      4 C4          6.8962    6.9841   13.4581 C.ar        1 C03       0.0592
      5 C5          6.7992    7.8897   14.5392 C.ar        1 C03      -0.0175
      6 C6          6.2390    9.1723   14.3506 C.ar        1 C03       0.0845
      7 C10         6.5554    6.2496   11.3490 C.2         1 C03      -0.0105
      8 C11         7.2398    5.2804   12.1107 C.2         1 C03       0.0574
      9 N12         7.4603    5.7541   13.3756 N.pl3       1 C03      -0.2466
     10 C13         6.1805    6.1616    9.9758 C.2         1 C03       0.0368
     11 C14         7.5910    3.9159   11.6384 C.3         1 C03      -0.0027
     12 C18         8.1373    5.0563   14.4583 C.3         1 C03       0.0846
     13 O19         6.2506   10.1370   15.3298 O.3         1 C03      -0.2340
     14 C20         5.4948    9.9013   16.5337 C.3         1 C03       0.5447
     15 F21         5.5140   11.0631   17.2603 F           1 C03      -0.1402
     16 F22         6.0614    8.9349   17.3269 F           1 C03      -0.1402
     17 F23         4.1813    9.5786   16.2831 F           1 C03      -0.1402
     18 C24         9.6261    5.0278   14.3196 C.ar        1 C03      -0.0091
     19 C27        10.2451    3.8762   13.7785 C.ar        1 C03      -0.0287
     20 C28        11.6424    3.7885   13.6263 C.ar        1 C03       0.0876
     21 C29        12.4435    4.8853   13.9829 C.ar        1 C03      -0.0391
     22 C30        11.8614    6.0176   14.5665 C.ar        1 C03      -0.0631
     23 C31        10.4659    6.1000   14.7368 C.ar        1 C03       0.0319
     24 CL1         9.9082    7.5205   15.4720 Cl          1 C03      -0.0872
     25 O36        12.2278    2.6708   13.0927 O.3         1 C03      -0.3024
     26 C37        12.5611    1.6025   14.0075 C.3         1 C03       0.1302
     27 C38        11.3177    0.8512   14.5494 C.3         1 C03      -0.0222
     28 C42        13.5085    2.0045   15.0726 C.2         1 C03       0.0683
     29 O44        14.7448    2.4328   14.7375 O.co2       1 C03      -0.5660
     30 O45        13.1290    2.1015   16.3669 O.co2       1 C03      -0.5660
     31 N46         6.9527    5.5543    9.0496 N.2         1 C03      -0.1679
     32 O47         6.4022    5.5990    7.8644 O.3         1 C03      -0.1876
     33 C48         5.2302    6.2556    7.9671 C.ar        1 C03       0.1433
     34 C49         5.0472    6.6235    9.2975 C.ar        1 C03       0.0134
     35 C50         4.2901    6.5646    6.9699 C.ar        1 C03       0.0032
     36 C51         3.1340    7.2977    7.3233 C.ar        1 C03       0.0851
     37 C52         2.9164    7.6282    8.6818 C.ar        1 C03      -0.0395
     38 C53         3.8620    7.2868    9.6724 C.ar        1 C03      -0.0670
     39 O57         2.1750    7.6344    6.3999 O.3         1 C03      -0.3234
     40 C58         2.6041    8.5390    5.3622 C.3         1 C03       0.0592
     41 H1          5.4150   10.4728   12.9012 H           1 C03       0.0459
     42 H2          5.5186    8.9034   11.0731 H           1 C03       0.0504
     43 H3          7.1443    7.6309   15.4608 H           1 C03       0.0444
     44 H4          7.0693    3.6472   10.7237 H           1 C03       0.0449
     45 H5          7.3044    3.1772   12.3864 H           1 C03       0.0449
     46 H6          8.6624    3.8513   11.4497 H           1 C03       0.0449
     47 H7          7.7357    4.0420   14.5202 H           1 C03       0.0764
     48 H8          7.9102    5.4854   15.4346 H           1 C03       0.0764
     49 H9          9.6771    3.0752   13.5025 H           1 C03       0.0480
     50 H10        13.4577    4.8495   13.8565 H           1 C03       0.0487
     51 H11        12.4695    6.7846   14.8590 H           1 C03       0.0578
     52 H12        13.0978    0.8779   13.3976 H           1 C03       0.0818
     53 H13        11.6340   -0.0167   15.1291 H           1 C03       0.0276
     54 H14        10.6884    0.5079   13.7263 H           1 C03       0.0276
     55 H15        10.7234    1.4917   15.2030 H           1 C03       0.0276
     56 H16         4.4513    6.2708    6.0062 H           1 C03       0.0476
     57 H17         2.0627    8.1192    8.9546 H           1 C03       0.0490
     58 H18         3.6808    7.5186   10.6477 H           1 C03       0.0582
     59 H19         1.7345    8.8394    4.7790 H           1 C03       0.0578
     60 H20         3.3092    8.0508    4.6864 H           1 C03       0.0578
     61 H21         3.0620    9.4423    5.7711 H           1 C03       0.0578
@<TRIPOS>BOND
     1     1     2  ar
     2     1     6  ar
     3     2     3  ar
     4     3     4  ar
     5     3     7   1
     6     4     5  ar
     7     4     9   1
     8     5     6  ar
     9     6    13   1
    10     7     8   2
    11     7    10   1
    12     8     9   1
    13     8    11   1
    14     9    12   1
    15    10    31   2
    16    10    34   1
    17    12    18   1
    18    13    14   1
    19    14    15   1
    20    14    16   1
    21    14    17   1
    22    18    19  ar
    23    18    23  ar
    24    19    20  ar
    25    20    21  ar
    26    20    25   1
    27    21    22  ar
    28    22    23  ar
    29    23    24   1
    30    25    26   1
    31    26    27   1
    32    26    28   1
    33    28    29  ar
    34    28    30  ar
    35    31    32   1
    36    32    33   1
    37    33    34  ar
    38    33    35  ar
    39    34    38  ar
    40    35    36  ar
    41    36    37  ar
    42    36    39   1
    43    37    38  ar
    44    39    40   1
    45     1    41   1
    46     2    42   1
    47     5    43   1
    48    11    44   1
    49    11    45   1
    50    11    46   1
    51    12    47   1
    52    12    48   1
    53    19    49   1
    54    21    50   1
    55    22    51   1
    56    26    52   1
    57    27    53   1
    58    27    54   1
    59    27    55   1
    60    35    56   1
    61    37    57   1
    62    38    58   1
    63    40    59   1
    64    40    60   1
    65    40    61   1
@<TRIPOS>SUBSTRUCTURE
     1  C03      1

