@<TRIPOS>MOLECULE
2p4y_ligand_054
    61    65
SMALL
GAST_HUCK
****
This file was generated by PARSER (from files_GN.cpp)

@<TRIPOS>ATOM
      1 C1          7.9853    1.3871   12.3825 C.ar        1 C03      -0.0494
      2 C2          8.2947    2.6703   11.8879 C.ar        1 C03      -0.0824
      3 C3          9.5953    3.1785   12.0710 C.ar        1 C03      -0.0320
      4 C4         10.5939    2.4115   12.6761 C.ar        1 C03       0.0592
      5 C5         10.2908    1.1080   13.1362 C.ar        1 C03      -0.0175
      6 C6          8.9840    0.5900   12.9890 C.ar        1 C03       0.0845
      7 C10        10.1572    4.4059   11.7439 C.2         1 C03      -0.0105
      8 C11        11.5095    4.3408   12.1081 C.2         1 C03       0.0574
      9 N12        11.7370    3.1391   12.7082 N.pl3       1 C03      -0.2466
     10 C13         9.4625    5.4932   11.1842 C.2         1 C03       0.0368
     11 C14        12.5180    5.4155   11.9260 C.3         1 C03      -0.0027
     12 C18        13.0005    2.7229   13.2673 C.3         1 C03       0.0846
     13 O19         8.7304   -0.6514   13.5037 O.3         1 C03      -0.2340
     14 C20         8.1358   -1.6360   12.6373 C.3         1 C03       0.5447
     15 F21         8.3772   -2.8598   13.2038 F           1 C03      -0.1402
     16 F22         8.6597   -1.6581   11.3642 F           1 C03      -0.1402
     17 F23         6.7740   -1.4706   12.5686 F           1 C03      -0.1402
     18 C24        13.5010    3.3909   14.5162 C.ar        1 C03      -0.0091
     19 C27        14.8732    3.1857   14.8103 C.ar        1 C03      -0.0287
     20 C28        15.4911    3.7879   15.9156 C.ar        1 C03       0.0876
     21 C29        14.7270    4.5732   16.7925 C.ar        1 C03      -0.0391
     22 C30        13.3585    4.7675   16.5455 C.ar        1 C03      -0.0631
     23 C31        12.7337    4.1746   15.4285 C.ar        1 C03       0.0319
     24 CL1        11.0612    4.4190   15.3099 Cl          1 C03      -0.0872
     25 O36        16.8069    3.5281   16.1800 O.3         1 C03      -0.3024
     26 C37        17.7546    4.5189   15.7300 C.3         1 C03       0.1302
     27 C38        17.9338    4.5571   14.1886 C.3         1 C03      -0.0222
     28 C42        19.0324    4.1925   16.3814 C.2         1 C03       0.0683
     29 O44        19.9583    5.1676   16.5474 O.co2       1 C03      -0.5660
     30 O45        19.4757    2.9101   16.3992 O.co2       1 C03      -0.5660
     31 N46         9.8558    6.1883   10.0965 N.2         1 C03      -0.1679
     32 O47         8.9597    7.0926    9.7830 O.3         1 C03      -0.1876
     33 C48         7.9449    7.0178   10.6705 C.ar        1 C03       0.1433
     34 C49         8.2439    6.0252   11.5954 C.ar        1 C03       0.0134
     35 C50         6.7441    7.7393   10.7484 C.ar        1 C03       0.0032
     36 C51         5.8485    7.4744   11.8065 C.ar        1 C03       0.0851
     37 C52         6.1597    6.4697   12.7532 C.ar        1 C03      -0.0395
     38 C53         7.3688    5.7510   12.6675 C.ar        1 C03      -0.0670
     39 O57         4.6678    8.1536   11.8885 O.3         1 C03      -0.3234
     40 C58         4.7532    9.3484   12.6855 C.3         1 C03       0.0592
     41 H1          7.0284    1.0353   12.3029 H           1 C03       0.0459
     42 H2          7.5690    3.2144   11.4190 H           1 C03       0.0504
     43 H3         11.0032    0.5366   13.5887 H           1 C03       0.0444
     44 H4         12.1000    6.3054   11.4655 H           1 C03       0.0449
     45 H5         13.3224    5.0539   11.2881 H           1 C03       0.0449
     46 H6         12.9386    5.7083   12.8859 H           1 C03       0.0449
     47 H7         13.7372    2.8867   12.4757 H           1 C03       0.0764
     48 H8         13.0130    1.6489   13.4622 H           1 C03       0.0764
     49 H9         15.4505    2.5920   14.2080 H           1 C03       0.0480
     50 H10        15.1543    4.9822   17.6266 H           1 C03       0.0487
     51 H11        12.8140    5.3362   17.2015 H           1 C03       0.0578
     52 H12        17.4520    5.5146   16.0757 H           1 C03       0.0818
     53 H13        18.7498    5.2340   13.9149 H           1 C03       0.0276
     54 H14        17.0229    4.9197   13.7081 H           1 C03       0.0276
     55 H15        18.1595    3.5593   13.8024 H           1 C03       0.0276
     56 H16         6.5315    8.4456   10.0482 H           1 C03       0.0476
     57 H17         5.5060    6.2580   13.5059 H           1 C03       0.0490
     58 H18         7.5988    5.0405   13.3635 H           1 C03       0.0582
     59 H19         3.7670    9.8137   12.7139 H           1 C03       0.0578
     60 H20         5.4555   10.0653   12.2521 H           1 C03       0.0578
     61 H21         5.0507    9.1216   13.7128 H           1 C03       0.0578
@<TRIPOS>BOND
     1     1     2  ar
     2     1     6  ar
     3     2     3  ar
     4     3     4  ar
     5     3     7   1
     6     4     5  ar
     7     4     9   1
     8     5     6  ar
     9     6    13   1
    10     7     8   2
    11     7    10   1
    12     8     9   1
    13     8    11   1
    14     9    12   1
    15    10    31   2
    16    10    34   1
    17    12    18   1
    18    13    14   1
    19    14    15   1
    20    14    16   1
    21    14    17   1
    22    18    19  ar
    23    18    23  ar
    24    19    20  ar
    25    20    21  ar
    26    20    25   1
    27    21    22  ar
    28    22    23  ar
    29    23    24   1
    30    25    26   1
    31    26    27   1
    32    26    28   1
    33    28    29  ar
    34    28    30  ar
    35    31    32   1
    36    32    33   1
    37    33    34  ar
    38    33    35  ar
    39    34    38  ar
    40    35    36  ar
    41    36    37  ar
    42    36    39   1
    43    37    38  ar
    44    39    40   1
    45     1    41   1
    46     2    42   1
    47     5    43   1
    48    11    44   1
    49    11    45   1
    50    11    46   1
    51    12    47   1
    52    12    48   1
    53    19    49   1
    54    21    50   1
    55    22    51   1
    56    26    52   1
    57    27    53   1
    58    27    54   1
    59    27    55   1
    60    35    56   1
    61    37    57   1
    62    38    58   1
    63    40    59   1
    64    40    60   1
    65    40    61   1
@<TRIPOS>SUBSTRUCTURE
     1  C03      1

