@<TRIPOS>MOLECULE
2p4y_ligand_021
    61    65
SMALL
GAST_HUCK
****
This file was generated by PARSER (from files_GN.cpp)

@<TRIPOS>ATOM
      1 C1          6.5176    6.5043    9.9241 C.ar        1 C03      -0.0494
      2 C2          6.2923    7.2233   11.1131 C.ar        1 C03      -0.0824
      3 C3          5.0638    7.8918   11.2958 C.ar        1 C03      -0.0320
      4 C4          4.0743    7.8316   10.3120 C.ar        1 C03       0.0592
      5 C5          4.3015    7.1048    9.1201 C.ar        1 C03      -0.0175
      6 C6          5.5308    6.4321    8.9173 C.ar        1 C03       0.0845
      7 C10         4.5694    8.6683   12.3480 C.2         1 C03      -0.0105
      8 C11         3.2931    9.1010   11.9329 C.2         1 C03       0.0574
      9 N12         3.0027    8.5587   10.7164 N.pl3       1 C03      -0.2466
     10 C13         5.2723    8.9827   13.5387 C.2         1 C03       0.0368
     11 C14         2.4256   10.0743   12.6475 C.3         1 C03      -0.0027
     12 C18         1.7732    8.7063    9.9618 C.3         1 C03       0.0846
     13 O19         5.8824    5.7377    7.7808 O.3         1 C03      -0.2340
     14 C20         4.9004    5.2009    6.8786 C.3         1 C03       0.5447
     15 F21         5.5603    4.4140    5.9733 F           1 C03      -0.1402
     16 F22         4.2753    6.1956    6.1673 F           1 C03      -0.1402
     17 F23         3.9744    4.4119    7.5180 F           1 C03      -0.1402
     18 C24         1.8913    9.5808    8.7523 C.ar        1 C03      -0.0091
     19 C27         2.2774   10.9298    8.9515 C.ar        1 C03      -0.0287
     20 C28         2.2787   11.8691    7.9030 C.ar        1 C03       0.0876
     21 C29         1.9581   11.4409    6.6011 C.ar        1 C03      -0.0391
     22 C30         1.6080   10.1036    6.3646 C.ar        1 C03      -0.0631
     23 C31         1.5577    9.1722    7.4286 C.ar        1 C03       0.0319
     24 CL1         1.0570    7.5978    7.0331 Cl          1 C03      -0.0872
     25 O36         2.6033   13.1779    8.1389 O.3         1 C03      -0.3024
     26 C37         1.5012   14.0282    8.5440 C.3         1 C03       0.1302
     27 C38         1.9376   15.5008    8.3672 C.3         1 C03      -0.0222
     28 C42         1.1027   13.7886    9.9488 C.2         1 C03       0.0683
     29 O44         2.0080   13.8951   10.9472 O.co2       1 C03      -0.5660
     30 O45        -0.1520   13.3929   10.2544 O.co2       1 C03      -0.5660
     31 N46         6.6124    9.1442   13.5851 N.2         1 C03      -0.1679
     32 O47         7.0018    9.5283   14.7753 O.3         1 C03      -0.1876
     33 C48         5.9117    9.6187   15.5684 C.ar        1 C03       0.1433
     34 C49         4.7978    9.2414   14.8251 C.ar        1 C03       0.0134
     35 C50         5.8081   10.0213   16.9104 C.ar        1 C03       0.0032
     36 C51         4.5362   10.0314   17.5269 C.ar        1 C03       0.0851
     37 C52         3.4031    9.5968   16.7869 C.ar        1 C03      -0.0395
     38 C53         3.5339    9.1766   15.4428 C.ar        1 C03      -0.0670
     39 O57         4.4152   10.5401   18.7873 O.3         1 C03      -0.3234
     40 C58         3.8634    9.6369   19.7594 C.3         1 C03       0.0592
     41 H1          7.4158    6.0299    9.7901 H           1 C03       0.0459
     42 H2          7.0209    7.2601   11.8279 H           1 C03       0.0504
     43 H3          3.5752    7.0846    8.4082 H           1 C03       0.0444
     44 H4          2.9663   10.6094   13.4287 H           1 C03       0.0449
     45 H5          1.5841    9.5467   13.0963 H           1 C03       0.0449
     46 H6          2.0295   10.8161   11.9579 H           1 C03       0.0449
     47 H7          0.9871    9.1423   10.5783 H           1 C03       0.0764
     48 H8          1.4136    7.7071    9.7125 H           1 C03       0.0764
     49 H9          2.5468   11.2537    9.8785 H           1 C03       0.0480
     50 H10         1.9668   12.1110    5.8290 H           1 C03       0.0487
     51 H11         1.3647    9.8164    5.4148 H           1 C03       0.0578
     52 H12         0.6367   13.8700    7.8861 H           1 C03       0.0818
     53 H13         1.1244   16.1768    8.6478 H           1 C03       0.0276
     54 H14         2.1964   15.6895    7.3233 H           1 C03       0.0276
     55 H15         2.8100   15.7222    8.9863 H           1 C03       0.0276
     56 H16         6.6407   10.3334   17.4158 H           1 C03       0.0476
     57 H17         2.4781    9.6001   17.2251 H           1 C03       0.0490
     58 H18         2.7189    8.8364   14.9323 H           1 C03       0.0582
     59 H19         3.9074   10.1234   20.7351 H           1 C03       0.0578
     60 H20         4.4368    8.7074   19.8083 H           1 C03       0.0578
     61 H21         2.8177    9.4095   19.5419 H           1 C03       0.0578
@<TRIPOS>BOND
     1     1     2  ar
     2     1     6  ar
     3     2     3  ar
     4     3     4  ar
     5     3     7   1
     6     4     5  ar
     7     4     9   1
     8     5     6  ar
     9     6    13   1
    10     7     8   2
    11     7    10   1
    12     8     9   1
    13     8    11   1
    14     9    12   1
    15    10    31   2
    16    10    34   1
    17    12    18   1
    18    13    14   1
    19    14    15   1
    20    14    16   1
    21    14    17   1
    22    18    19  ar
    23    18    23  ar
    24    19    20  ar
    25    20    21  ar
    26    20    25   1
    27    21    22  ar
    28    22    23  ar
    29    23    24   1
    30    25    26   1
    31    26    27   1
    32    26    28   1
    33    28    29  ar
    34    28    30  ar
    35    31    32   1
    36    32    33   1
    37    33    34  ar
    38    33    35  ar
    39    34    38  ar
    40    35    36  ar
    41    36    37  ar
    42    36    39   1
    43    37    38  ar
    44    39    40   1
    45     1    41   1
    46     2    42   1
    47     5    43   1
    48    11    44   1
    49    11    45   1
    50    11    46   1
    51    12    47   1
    52    12    48   1
    53    19    49   1
    54    21    50   1
    55    22    51   1
    56    26    52   1
    57    27    53   1
    58    27    54   1
    59    27    55   1
    60    35    56   1
    61    37    57   1
    62    38    58   1
    63    40    59   1
    64    40    60   1
    65    40    61   1
@<TRIPOS>SUBSTRUCTURE
     1  C03      1

