@<TRIPOS>MOLECULE
2p4y_ligand_024
    61    65
SMALL
GAST_HUCK
****
This file was generated by PARSER (from files_GN.cpp)

@<TRIPOS>ATOM
      1 C1          2.9763    8.8757   10.3145 C.ar        1 C03      -0.0494
      2 C2          3.7228    8.9912   11.5031 C.ar        1 C03      -0.0824
      3 C3          4.7977    8.1143   11.7238 C.ar        1 C03      -0.0320
      4 C4          5.1750    7.1837   10.7553 C.ar        1 C03       0.0592
      5 C5          4.4326    7.0847    9.5541 C.ar        1 C03      -0.0175
      6 C6          3.3058    7.9105    9.3341 C.ar        1 C03       0.0845
      7 C10         5.6802    7.9840   12.7903 C.2         1 C03      -0.0105
      8 C11         6.5828    6.9647   12.4324 C.2         1 C03       0.0574
      9 N12         6.2670    6.4955   11.1853 N.pl3       1 C03      -0.2466
     10 C13         5.6900    8.7885   13.9603 C.2         1 C03       0.0368
     11 C14         7.6769    6.4864   13.3149 C.3         1 C03      -0.0027
     12 C18         6.9342    5.5270   10.3312 C.3         1 C03       0.0846
     13 O19         2.5007    7.9040    8.2157 O.3         1 C03      -0.2340
     14 C20         2.4819    6.8184    7.2710 C.3         1 C03       0.5447
     15 F21         1.4451    7.0465    6.3977 F           1 C03      -0.1402
     16 F22         2.2533    5.5972    7.8615 F           1 C03      -0.1402
     17 F23         3.6309    6.7746    6.5183 F           1 C03      -0.1402
     18 C24         7.8988    4.5765   10.9451 C.ar        1 C03      -0.0091
     19 C27         7.3810    3.4623   11.6535 C.ar        1 C03      -0.0287
     20 C28         8.2151    2.6007   12.3836 C.ar        1 C03       0.0876
     21 C29         9.6043    2.8082   12.3530 C.ar        1 C03      -0.0391
     22 C30        10.1546    3.8706   11.6119 C.ar        1 C03      -0.0631
     23 C31         9.3125    4.7554   10.9062 C.ar        1 C03       0.0319
     24 CL1        10.0601    6.0432   10.0960 Cl          1 C03      -0.0872
     25 O36         7.6879    1.5224   13.0424 O.3         1 C03      -0.3024
     26 C37         6.9094    1.7263   14.2441 C.3         1 C03       0.1302
     27 C38         5.7702    2.7731   14.1428 C.3         1 C03      -0.0222
     28 C42         7.7590    1.9857   15.4247 C.2         1 C03       0.0683
     29 O44         8.4778    3.1279   15.5226 O.co2       1 C03      -0.5660
     30 O45         7.6997    1.1743   16.5050 O.co2       1 C03      -0.5660
     31 N46         6.8172    9.2815   14.5097 N.2         1 C03      -0.1679
     32 O47         6.5453    9.9856   15.5810 O.3         1 C03      -0.1876
     33 C48         5.2107    9.9759   15.7729 C.ar        1 C03       0.1433
     34 C49         4.6318    9.2198   14.7574 C.ar        1 C03       0.0134
     35 C50         4.4364   10.5706   16.7847 C.ar        1 C03       0.0032
     36 C51         3.0384   10.3798   16.7687 C.ar        1 C03       0.0851
     37 C52         2.4420    9.6113   15.7395 C.ar        1 C03      -0.0395
     38 C53         3.2393    9.0080   14.7414 C.ar        1 C03      -0.0670
     39 O57         2.2545   10.9716   17.7212 O.3         1 C03      -0.3234
     40 C58         2.0128   10.1320   18.8645 C.3         1 C03       0.0592
     41 H1          2.1924    9.5103   10.1532 H           1 C03       0.0459
     42 H2          3.4836    9.7135   12.1849 H           1 C03       0.0504
     43 H3          4.7049    6.4030    8.8472 H           1 C03       0.0444
     44 H4          7.6718    6.9546   14.2976 H           1 C03       0.0449
     45 H5          8.6407    6.6904   12.8508 H           1 C03       0.0449
     46 H6          7.5807    5.4194   13.4919 H           1 C03       0.0449
     47 H7          7.4028    6.0826    9.5176 H           1 C03       0.0764
     48 H8          6.1814    4.9022    9.8479 H           1 C03       0.0764
     49 H9          6.3741    3.2987   11.6854 H           1 C03       0.0480
     50 H10        10.2284    2.1835   12.8679 H           1 C03       0.0487
     51 H11        11.1694    3.9997   11.5986 H           1 C03       0.0578
     52 H12         6.4129    0.7650   14.4086 H           1 C03       0.0818
     53 H13         5.1750    2.7803   15.0597 H           1 C03       0.0276
     54 H14         5.1132    2.5381   13.3024 H           1 C03       0.0276
     55 H15         6.1633    3.7788   13.9993 H           1 C03       0.0276
     56 H16         4.8831   11.1211   17.5219 H           1 C03       0.0476
     57 H17         1.4309    9.4803   15.7233 H           1 C03       0.0490
     58 H18         2.8094    8.4210   14.0243 H           1 C03       0.0582
     59 H19         1.3641   10.6700   19.5571 H           1 C03       0.0578
     60 H20         2.9442    9.8952   19.3849 H           1 C03       0.0578
     61 H21         1.5083    9.2051   18.5800 H           1 C03       0.0578
@<TRIPOS>BOND
     1     1     2  ar
     2     1     6  ar
     3     2     3  ar
     4     3     4  ar
     5     3     7   1
     6     4     5  ar
     7     4     9   1
     8     5     6  ar
     9     6    13   1
    10     7     8   2
    11     7    10   1
    12     8     9   1
    13     8    11   1
    14     9    12   1
    15    10    31   2
    16    10    34   1
    17    12    18   1
    18    13    14   1
    19    14    15   1
    20    14    16   1
    21    14    17   1
    22    18    19  ar
    23    18    23  ar
    24    19    20  ar
    25    20    21  ar
    26    20    25   1
    27    21    22  ar
    28    22    23  ar
    29    23    24   1
    30    25    26   1
    31    26    27   1
    32    26    28   1
    33    28    29  ar
    34    28    30  ar
    35    31    32   1
    36    32    33   1
    37    33    34  ar
    38    33    35  ar
    39    34    38  ar
    40    35    36  ar
    41    36    37  ar
    42    36    39   1
    43    37    38  ar
    44    39    40   1
    45     1    41   1
    46     2    42   1
    47     5    43   1
    48    11    44   1
    49    11    45   1
    50    11    46   1
    51    12    47   1
    52    12    48   1
    53    19    49   1
    54    21    50   1
    55    22    51   1
    56    26    52   1
    57    27    53   1
    58    27    54   1
    59    27    55   1
    60    35    56   1
    61    37    57   1
    62    38    58   1
    63    40    59   1
    64    40    60   1
    65    40    61   1
@<TRIPOS>SUBSTRUCTURE
     1  C03      1

