@<TRIPOS>MOLECULE
2p4y_ligand_056
    61    65
SMALL
GAST_HUCK
****
This file was generated by PARSER (from files_GN.cpp)

@<TRIPOS>ATOM
      1 C1         16.9118   11.2238    7.5782 C.ar        1 C03      -0.0494
      2 C2         15.6659   10.7727    8.0495 C.ar        1 C03      -0.0824
      3 C3         14.7520   11.7052    8.5759 C.ar        1 C03      -0.0320
      4 C4         15.0358   13.0748    8.5804 C.ar        1 C03       0.0592
      5 C5         16.2913   13.5241    8.1121 C.ar        1 C03      -0.0175
      6 C6         17.2484   12.5947    7.6494 C.ar        1 C03       0.0845
      7 C10        13.4694   11.5383    9.0839 C.2         1 C03      -0.0105
      8 C11        12.9724   12.8286    9.3230 C.2         1 C03       0.0574
      9 N12        13.9477   13.7468    9.0427 N.pl3       1 C03      -0.2466
     10 C13        12.8097   10.2992    9.2628 C.2         1 C03       0.0368
     11 C14        11.6199   13.1510    9.8406 C.3         1 C03      -0.0027
     12 C18        13.8019   15.1872    9.0953 C.3         1 C03       0.0846
     13 O19        18.4622   13.0335    7.1851 O.3         1 C03      -0.2340
     14 C20        19.5461   12.9514    8.1332 C.3         1 C03       0.5447
     15 F21        20.6597   13.4744    7.5302 F           1 C03      -0.1402
     16 F22        19.8426   11.6550    8.4831 F           1 C03      -0.1402
     17 F23        19.3150   13.6884    9.2714 F           1 C03      -0.1402
     18 C24        13.3708   15.7353   10.4175 C.ar        1 C03      -0.0091
     19 C27        12.1410   16.4344   10.5143 C.ar        1 C03      -0.0287
     20 C28        11.6647   16.9186   11.7447 C.ar        1 C03       0.0876
     21 C29        12.4476   16.7466   12.9019 C.ar        1 C03      -0.0391
     22 C30        13.6734   16.0614   12.8315 C.ar        1 C03      -0.0631
     23 C31        14.1382   15.5544   11.6010 C.ar        1 C03       0.0319
     24 CL1        15.6371   14.7560   11.6114 Cl          1 C03      -0.0872
     25 O36        10.4683   17.5904   11.7632 O.3         1 C03      -0.3024
     26 C37         9.3582   16.9787   12.4627 C.3         1 C03       0.1302
     27 C38         8.9244   15.6169   11.8513 C.3         1 C03      -0.0222
     28 C42         8.2784   17.9890   12.4698 C.2         1 C03       0.0683
     29 O44         7.0495   17.7614   11.9575 O.co2       1 C03      -0.5660
     30 O45         8.5046   19.1932   13.0394 O.co2       1 C03      -0.5660
     31 N46        11.5610   10.0334    8.8348 N.2         1 C03      -0.1679
     32 O47        11.2181    8.8021    9.1184 O.3         1 C03      -0.1876
     33 C48        12.2467    8.2185    9.7652 C.ar        1 C03       0.1433
     34 C49        13.2800    9.1410    9.8798 C.ar        1 C03       0.0134
     35 C50        12.3699    6.9131   10.2645 C.ar        1 C03       0.0032
     36 C51        13.5670    6.5468   10.9222 C.ar        1 C03       0.0851
     37 C52        14.6223    7.4855   11.0366 C.ar        1 C03      -0.0395
     38 C53        14.4767    8.7921   10.5357 C.ar        1 C03      -0.0670
     39 O57        13.7439    5.2759   11.4031 O.3         1 C03      -0.3234
     40 C58        13.0860    5.0395   12.6605 C.3         1 C03       0.0592
     41 H1         17.5793   10.5532    7.1905 H           1 C03       0.0459
     42 H2         15.4248    9.7831    7.9768 H           1 C03       0.0504
     43 H3         16.5270   14.5178    8.1049 H           1 C03       0.0444
     44 H4         10.9643   12.2868    9.8922 H           1 C03       0.0449
     45 H5         11.1422   13.8809    9.1899 H           1 C03       0.0449
     46 H6         11.6948   13.5592   10.8479 H           1 C03       0.0449
     47 H7         13.0938   15.4614    8.3080 H           1 C03       0.0764
     48 H8         14.7291   15.6988    8.8414 H           1 C03       0.0764
     49 H9         11.5744   16.5890    9.6799 H           1 C03       0.0480
     50 H10        12.1271   17.1218   13.7982 H           1 C03       0.0487
     51 H11        14.2185   15.9343   13.6855 H           1 C03       0.0578
     52 H12         9.6275   16.8087   13.5112 H           1 C03       0.0818
     53 H13         8.0582   15.2184   12.3822 H           1 C03       0.0276
     54 H14         9.7334   14.8906   11.9383 H           1 C03       0.0276
     55 H15         8.6748   15.7335   10.7967 H           1 C03       0.0276
     56 H16        11.6039    6.2455   10.1603 H           1 C03       0.0476
     57 H17        15.4949    7.2126   11.4916 H           1 C03       0.0490
     58 H18        15.2306    9.4731   10.6413 H           1 C03       0.0582
     59 H19        13.3525    4.0401   13.0008 H           1 C03       0.0578
     60 H20        12.0005    5.0824   12.5521 H           1 C03       0.0578
     61 H21        13.4028    5.7548   13.4232 H           1 C03       0.0578
@<TRIPOS>BOND
     1     1     2  ar
     2     1     6  ar
     3     2     3  ar
     4     3     4  ar
     5     3     7   1
     6     4     5  ar
     7     4     9   1
     8     5     6  ar
     9     6    13   1
    10     7     8   2
    11     7    10   1
    12     8     9   1
    13     8    11   1
    14     9    12   1
    15    10    31   2
    16    10    34   1
    17    12    18   1
    18    13    14   1
    19    14    15   1
    20    14    16   1
    21    14    17   1
    22    18    19  ar
    23    18    23  ar
    24    19    20  ar
    25    20    21  ar
    26    20    25   1
    27    21    22  ar
    28    22    23  ar
    29    23    24   1
    30    25    26   1
    31    26    27   1
    32    26    28   1
    33    28    29  ar
    34    28    30  ar
    35    31    32   1
    36    32    33   1
    37    33    34  ar
    38    33    35  ar
    39    34    38  ar
    40    35    36  ar
    41    36    37  ar
    42    36    39   1
    43    37    38  ar
    44    39    40   1
    45     1    41   1
    46     2    42   1
    47     5    43   1
    48    11    44   1
    49    11    45   1
    50    11    46   1
    51    12    47   1
    52    12    48   1
    53    19    49   1
    54    21    50   1
    55    22    51   1
    56    26    52   1
    57    27    53   1
    58    27    54   1
    59    27    55   1
    60    35    56   1
    61    37    57   1
    62    38    58   1
    63    40    59   1
    64    40    60   1
    65    40    61   1
@<TRIPOS>SUBSTRUCTURE
     1  C03      1

