@<TRIPOS>MOLECULE
2p4y_ligand_016
    61    65
SMALL
GAST_HUCK
****
This file was generated by PARSER (from files_GN.cpp)

@<TRIPOS>ATOM
      1 C1         11.0673    6.9750   10.5420 C.ar        1 C03      -0.0494
      2 C2          9.6715    6.9862   10.7157 C.ar        1 C03      -0.0824
      3 C3          9.0608    5.9050   11.3807 C.ar        1 C03      -0.0320
      4 C4          9.7993    4.7999   11.8104 C.ar        1 C03       0.0592
      5 C5         11.1878    4.7554   11.5485 C.ar        1 C03      -0.0175
      6 C6         11.8310    5.8644   10.9627 C.ar        1 C03       0.0845
      7 C10         7.7376    5.6837   11.7314 C.2         1 C03      -0.0105
      8 C11         7.7037    4.4460   12.3888 C.2         1 C03       0.0574
      9 N12         8.9634    3.9148   12.4157 N.pl3       1 C03      -0.2466
     10 C13         6.6573    6.4941   11.3516 C.2         1 C03       0.0368
     11 C14         6.4760    3.7997   12.9090 C.3         1 C03      -0.0027
     12 C18         9.3203    2.5917   12.8778 C.3         1 C03       0.0846
     13 O19        13.1989    5.9119   10.9248 O.3         1 C03      -0.2340
     14 C20        13.8220    5.3325    9.7672 C.3         1 C03       0.5447
     15 F21        15.1779    5.4641    9.9249 F           1 C03      -0.1402
     16 F22        13.4708    5.9947    8.6143 F           1 C03      -0.1402
     17 F23        13.5519    3.9881    9.6343 F           1 C03      -0.1402
     18 C24         9.8434    2.4882   14.2808 C.ar        1 C03      -0.0091
     19 C27        11.1215    3.0340   14.5659 C.ar        1 C03      -0.0287
     20 C28        11.8235    2.7272   15.7518 C.ar        1 C03       0.0876
     21 C29        11.1656    1.9806   16.7429 C.ar        1 C03      -0.0391
     22 C30         9.8624    1.5050   16.5291 C.ar        1 C03      -0.0631
     23 C31         9.1971    1.7341   15.3060 C.ar        1 C03       0.0319
     24 CL1         7.6538    1.0475   15.1440 Cl          1 C03      -0.0872
     25 O36        13.1282    3.1050   15.9981 O.3         1 C03      -0.3024
     26 C37        14.0263    3.4218   14.9066 C.3         1 C03       0.1302
     27 C38        15.4242    2.8274   15.2016 C.3         1 C03      -0.0222
     28 C42        14.1164    4.8865   14.7106 C.2         1 C03       0.0683
     29 O44        14.6444    5.4003   13.5713 O.co2       1 C03      -0.5660
     30 O45        13.7728    5.7505   15.7041 O.co2       1 C03      -0.5660
     31 N46         5.9887    7.3483   12.1514 N.2         1 C03      -0.1679
     32 O47         4.9796    7.8726   11.4991 O.3         1 C03      -0.1876
     33 C48         4.9552    7.3660   10.2454 C.ar        1 C03       0.1433
     34 C49         6.0267    6.4932   10.1153 C.ar        1 C03       0.0134
     35 C50         4.0506    7.5639    9.1909 C.ar        1 C03       0.0032
     36 C51         4.2375    6.8598    7.9834 C.ar        1 C03       0.0851
     37 C52         5.3363    5.9699    7.8500 C.ar        1 C03      -0.0395
     38 C53         6.2533    5.8013    8.9122 C.ar        1 C03      -0.0670
     39 O57         3.2844    6.9917    7.0095 O.3         1 C03      -0.3234
     40 C58         3.7725    7.2882    5.6874 C.3         1 C03       0.0592
     41 H1         11.5312    7.7842   10.1154 H           1 C03       0.0459
     42 H2          9.1161    7.7829   10.3941 H           1 C03       0.0504
     43 H3         11.7393    3.9385   11.8189 H           1 C03       0.0444
     44 H4          5.5922    4.4322   12.7902 H           1 C03       0.0449
     45 H5          6.5991    3.5916   13.9740 H           1 C03       0.0449
     46 H6          6.2962    2.8612   12.3779 H           1 C03       0.0449
     47 H7         10.0880    2.1845   12.2183 H           1 C03       0.0764
     48 H8          8.4737    1.9244   12.7199 H           1 C03       0.0764
     49 H9         11.5802    3.6072   13.8647 H           1 C03       0.0480
     50 H10        11.6462    1.7672   17.6162 H           1 C03       0.0487
     51 H11         9.4123    0.9592   17.2701 H           1 C03       0.0578
     52 H12        13.6910    2.9708   13.9673 H           1 C03       0.0818
     53 H13        16.1054    3.0090   14.3611 H           1 C03       0.0276
     54 H14        15.3420    1.7472   15.3460 H           1 C03       0.0276
     55 H15        15.8577    3.2717   16.1072 H           1 C03       0.0276
     56 H16         3.2569    8.2008    9.3116 H           1 C03       0.0476
     57 H17         5.4628    5.4345    6.9915 H           1 C03       0.0490
     58 H18         7.0530    5.1758    8.8186 H           1 C03       0.0582
     59 H19         2.9177    7.5513    5.0600 H           1 C03       0.0578
     60 H20         4.2607    6.4085    5.2537 H           1 C03       0.0578
     61 H21         4.4727    8.1319    5.6883 H           1 C03       0.0578
@<TRIPOS>BOND
     1     1     2  ar
     2     1     6  ar
     3     2     3  ar
     4     3     4  ar
     5     3     7   1
     6     4     5  ar
     7     4     9   1
     8     5     6  ar
     9     6    13   1
    10     7     8   2
    11     7    10   1
    12     8     9   1
    13     8    11   1
    14     9    12   1
    15    10    31   2
    16    10    34   1
    17    12    18   1
    18    13    14   1
    19    14    15   1
    20    14    16   1
    21    14    17   1
    22    18    19  ar
    23    18    23  ar
    24    19    20  ar
    25    20    21  ar
    26    20    25   1
    27    21    22  ar
    28    22    23  ar
    29    23    24   1
    30    25    26   1
    31    26    27   1
    32    26    28   1
    33    28    29  ar
    34    28    30  ar
    35    31    32   1
    36    32    33   1
    37    33    34  ar
    38    33    35  ar
    39    34    38  ar
    40    35    36  ar
    41    36    37  ar
    42    36    39   1
    43    37    38  ar
    44    39    40   1
    45     1    41   1
    46     2    42   1
    47     5    43   1
    48    11    44   1
    49    11    45   1
    50    11    46   1
    51    12    47   1
    52    12    48   1
    53    19    49   1
    54    21    50   1
    55    22    51   1
    56    26    52   1
    57    27    53   1
    58    27    54   1
    59    27    55   1
    60    35    56   1
    61    37    57   1
    62    38    58   1
    63    40    59   1
    64    40    60   1
    65    40    61   1
@<TRIPOS>SUBSTRUCTURE
     1  C03      1

