@<TRIPOS>MOLECULE
2p4y_ligand_042
    61    65
SMALL
GAST_HUCK
****
This file was generated by PARSER (from files_GN.cpp)

@<TRIPOS>ATOM
      1 C1          4.2335    9.3933   13.1519 C.ar        1 C03      -0.0494
      2 C2          5.2828    8.7972   12.4242 C.ar        1 C03      -0.0824
      3 C3          4.9759    8.0755   11.2523 C.ar        1 C03      -0.0320
      4 C4          3.6728    8.0248   10.7454 C.ar        1 C03       0.0592
      5 C5          2.6237    8.5558   11.5207 C.ar        1 C03      -0.0175
      6 C6          2.9006    9.2503   12.7145 C.ar        1 C03       0.0845
      7 C10         5.7799    7.3373   10.3919 C.2         1 C03      -0.0105
      8 C11         4.9491    6.9187    9.3368 C.2         1 C03       0.0574
      9 N12         3.6823    7.3839    9.5429 N.pl3       1 C03      -0.2466
     10 C13         7.1599    7.0619   10.5782 C.2         1 C03       0.0368
     11 C14         5.3954    6.0499    8.2112 C.3         1 C03      -0.0027
     12 C18         2.5178    7.1791    8.6946 C.3         1 C03       0.0846
     13 O19         1.8837    9.8386   13.4209 O.3         1 C03      -0.2340
     14 C20         1.2856    9.0186   14.4428 C.3         1 C03       0.5447
     15 F21         0.2622    9.7406   15.0022 F           1 C03      -0.1402
     16 F22         2.1716    8.7089   15.4482 F           1 C03      -0.1402
     17 F23         0.7417    7.8594   13.9403 F           1 C03      -0.1402
     18 C24         2.0861    8.3668    7.8830 C.ar        1 C03      -0.0091
     19 C27         1.2642    9.3543    8.4877 C.ar        1 C03      -0.0287
     20 C28         0.7912   10.4721    7.7855 C.ar        1 C03       0.0876
     21 C29         1.1362   10.6414    6.4323 C.ar        1 C03      -0.0391
     22 C30         1.9170    9.6646    5.7886 C.ar        1 C03      -0.0631
     23 C31         2.3725    8.5368    6.4975 C.ar        1 C03       0.0319
     24 CL1         3.2313    7.4042    5.5751 Cl          1 C03      -0.0872
     25 O36         0.0153   11.4130    8.4190 O.3         1 C03      -0.3024
     26 C37        -1.4121   11.2830    8.2216 C.3         1 C03       0.1302
     27 C38        -2.0786   12.5913    8.7017 C.3         1 C03      -0.0222
     28 C42        -1.9770   10.1195    8.9429 C.2         1 C03       0.0683
     29 O44        -2.6122    9.1354    8.2685 O.co2       1 C03      -0.5660
     30 O45        -1.8025    9.9769   10.2756 O.co2       1 C03      -0.5660
     31 N46         8.0970    7.1809    9.6175 N.2         1 C03      -0.1679
     32 O47         9.2876    6.9057   10.0872 O.3         1 C03      -0.1876
     33 C48         9.1687    6.5888   11.3926 C.ar        1 C03       0.1433
     34 C49         7.8219    6.6692   11.7393 C.ar        1 C03       0.0134
     35 C50        10.1494    6.2364   12.3361 C.ar        1 C03       0.0032
     36 C51         9.7499    5.9702   13.6628 C.ar        1 C03       0.0851
     37 C52         8.3827    6.0448   14.0195 C.ar        1 C03      -0.0395
     38 C53         7.4060    6.3596   13.0494 C.ar        1 C03      -0.0670
     39 O57        10.6861    5.6914   14.6207 O.3         1 C03      -0.3234
     40 C58        10.8027    4.2881   14.9090 C.3         1 C03       0.0592
     41 H1          4.4435    9.9005   14.0125 H           1 C03       0.0459
     42 H2          6.2449    8.8850   12.7557 H           1 C03       0.0504
     43 H3          1.6537    8.4037   11.2549 H           1 C03       0.0444
     44 H4          6.3942    5.6402    8.3618 H           1 C03       0.0449
     45 H5          5.4139    6.6308    7.2932 H           1 C03       0.0449
     46 H6          4.7211    5.2008    8.0877 H           1 C03       0.0449
     47 H7          1.6790    6.8508    9.3093 H           1 C03       0.0764
     48 H8          2.6852    6.3357    8.0312 H           1 C03       0.0764
     49 H9          0.9613    9.2489    9.4497 H           1 C03       0.0480
     50 H10         0.8072   11.4483    5.9031 H           1 C03       0.0487
     51 H11         2.1286    9.7805    4.7938 H           1 C03       0.0578
     52 H12        -1.6357   11.1878    7.1532 H           1 C03       0.0818
     53 H13        -3.1578   12.5561    8.5320 H           1 C03       0.0276
     54 H14        -1.6722   13.4385    8.1455 H           1 C03       0.0276
     55 H15        -1.8940   12.7574    9.7658 H           1 C03       0.0276
     56 H16        11.1341    6.1894   12.0624 H           1 C03       0.0476
     57 H17         8.0982    5.8634   14.9827 H           1 C03       0.0490
     58 H18         6.4163    6.3800   13.3052 H           1 C03       0.0582
     59 H19        11.5331    4.1646   15.7089 H           1 C03       0.0578
     60 H20        11.1555    3.7350   14.0349 H           1 C03       0.0578
     61 H21         9.8531    3.8660   15.2485 H           1 C03       0.0578
@<TRIPOS>BOND
     1     1     2  ar
     2     1     6  ar
     3     2     3  ar
     4     3     4  ar
     5     3     7   1
     6     4     5  ar
     7     4     9   1
     8     5     6  ar
     9     6    13   1
    10     7     8   2
    11     7    10   1
    12     8     9   1
    13     8    11   1
    14     9    12   1
    15    10    31   2
    16    10    34   1
    17    12    18   1
    18    13    14   1
    19    14    15   1
    20    14    16   1
    21    14    17   1
    22    18    19  ar
    23    18    23  ar
    24    19    20  ar
    25    20    21  ar
    26    20    25   1
    27    21    22  ar
    28    22    23  ar
    29    23    24   1
    30    25    26   1
    31    26    27   1
    32    26    28   1
    33    28    29  ar
    34    28    30  ar
    35    31    32   1
    36    32    33   1
    37    33    34  ar
    38    33    35  ar
    39    34    38  ar
    40    35    36  ar
    41    36    37  ar
    42    36    39   1
    43    37    38  ar
    44    39    40   1
    45     1    41   1
    46     2    42   1
    47     5    43   1
    48    11    44   1
    49    11    45   1
    50    11    46   1
    51    12    47   1
    52    12    48   1
    53    19    49   1
    54    21    50   1
    55    22    51   1
    56    26    52   1
    57    27    53   1
    58    27    54   1
    59    27    55   1
    60    35    56   1
    61    37    57   1
    62    38    58   1
    63    40    59   1
    64    40    60   1
    65    40    61   1
@<TRIPOS>SUBSTRUCTURE
     1  C03      1

