@<TRIPOS>MOLECULE
2p4y_ligand_005
    61    65
SMALL
GAST_HUCK
****
This file was generated by PARSER (from files_GN.cpp)

@<TRIPOS>ATOM
      1 C1         10.4790    6.0558   14.9978 C.ar        1 C03      -0.0494
      2 C2          9.5733    6.2269   13.9335 C.ar        1 C03      -0.0824
      3 C3         10.0239    6.0620   12.6054 C.ar        1 C03      -0.0320
      4 C4         11.3420    5.6830   12.3594 C.ar        1 C03       0.0592
      5 C5         12.2627    5.5416   13.4204 C.ar        1 C03      -0.0175
      6 C6         11.8249    5.7116   14.7496 C.ar        1 C03       0.0845
      7 C10         9.3831    6.2161   11.3734 C.2         1 C03      -0.0105
      8 C11        10.3515    5.8624   10.4049 C.2         1 C03       0.0574
      9 N12        11.5207    5.5430   11.0285 N.pl3       1 C03      -0.2466
     10 C13         8.0585    6.7276   11.2396 C.2         1 C03       0.0368
     11 C14        10.2301    5.8945    8.9289 C.3         1 C03      -0.0027
     12 C18        12.7986    5.2288   10.4080 C.3         1 C03       0.0846
     13 O19        12.6947    5.6247   15.8039 O.3         1 C03      -0.2340
     14 C20        13.1750    4.3083   16.1400 C.3         1 C03       0.5447
     15 F21        13.8241    4.4154   17.3423 F           1 C03      -0.1402
     16 F22        14.0866    3.8428   15.2237 F           1 C03      -0.1402
     17 F23        12.1717    3.3795   16.2918 F           1 C03      -0.1402
     18 C24        13.6966    6.3961   10.1313 C.ar        1 C03      -0.0091
     19 C27        13.2432    7.7349   10.2841 C.ar        1 C03      -0.0287
     20 C28        14.0383    8.8390    9.9280 C.ar        1 C03       0.0876
     21 C29        15.3602    8.6181    9.5046 C.ar        1 C03      -0.0391
     22 C30        15.8515    7.3066    9.3759 C.ar        1 C03      -0.0631
     23 C31        15.0246    6.2001    9.6588 C.ar        1 C03       0.0319
     24 CL1        15.6936    4.6585    9.4084 Cl          1 C03      -0.0872
     25 O36        13.5515   10.1160   10.0741 O.3         1 C03      -0.3024
     26 C37        12.8624   10.7043    8.9412 C.3         1 C03       0.1302
     27 C38        13.0227   12.2354    9.0609 C.3         1 C03      -0.0222
     28 C42        11.4356   10.2998    8.8928 C.2         1 C03       0.0683
     29 O44        10.4095   11.1822    8.9436 O.co2       1 C03      -0.5660
     30 O45        11.1117    8.9936    8.7544 O.co2       1 C03      -0.5660
     31 N46         7.5204    7.6199   12.1052 N.2         1 C03      -0.1679
     32 O47         6.3011    7.9630   11.7761 O.3         1 C03      -0.1876
     33 C48         5.9751    7.2957   10.6491 C.ar        1 C03       0.1433
     34 C49         7.0596    6.4969   10.2924 C.ar        1 C03       0.0134
     35 C50         4.7968    7.3328    9.8823 C.ar        1 C03       0.0032
     36 C51         4.7211    6.5624    8.6987 C.ar        1 C03       0.0851
     37 C52         5.7967    5.7036    8.3662 C.ar        1 C03      -0.0395
     38 C53         6.9686    5.6671    9.1640 C.ar        1 C03      -0.0670
     39 O57         3.5643    6.6120    7.9609 O.3         1 C03      -0.3234
     40 C58         3.7110    6.9498    6.5667 C.3         1 C03       0.0592
     41 H1         10.1592    6.1951   15.9577 H           1 C03       0.0459
     42 H2          8.5991    6.4688   14.1366 H           1 C03       0.0504
     43 H3         13.2442    5.3342   13.2279 H           1 C03       0.0444
     44 H4          9.2902    6.3574    8.6097 H           1 C03       0.0449
     45 H5         10.2604    4.8713    8.5452 H           1 C03       0.0449
     46 H6         11.0568    6.4605    8.4908 H           1 C03       0.0449
     47 H7         12.6267    4.7074    9.4654 H           1 C03       0.0764
     48 H8         13.3280    4.5136   11.0389 H           1 C03       0.0764
     49 H9         12.3059    7.9287   10.6322 H           1 C03       0.0480
     50 H10        15.9697    9.4074    9.2906 H           1 C03       0.0487
     51 H11        16.8148    7.1641    9.0609 H           1 C03       0.0578
     52 H12        13.3243   10.4066    7.9932 H           1 C03       0.0818
     53 H13        12.5323   12.7375    8.2218 H           1 C03       0.0276
     54 H14        14.0811   12.4989    9.0503 H           1 C03       0.0276
     55 H15        12.5806   12.5932    9.9962 H           1 C03       0.0276
     56 H16         4.0232    7.9337   10.1679 H           1 C03       0.0476
     57 H17         5.7366    5.1016    7.5438 H           1 C03       0.0490
     58 H18         7.7582    5.0709    8.9148 H           1 C03       0.0582
     59 H19         2.7155    7.0012    6.1227 H           1 C03       0.0578
     60 H20         4.2758    6.1852    6.0294 H           1 C03       0.0578
     61 H21         4.1949    7.9195    6.4270 H           1 C03       0.0578
@<TRIPOS>BOND
     1     1     2  ar
     2     1     6  ar
     3     2     3  ar
     4     3     4  ar
     5     3     7   1
     6     4     5  ar
     7     4     9   1
     8     5     6  ar
     9     6    13   1
    10     7     8   2
    11     7    10   1
    12     8     9   1
    13     8    11   1
    14     9    12   1
    15    10    31   2
    16    10    34   1
    17    12    18   1
    18    13    14   1
    19    14    15   1
    20    14    16   1
    21    14    17   1
    22    18    19  ar
    23    18    23  ar
    24    19    20  ar
    25    20    21  ar
    26    20    25   1
    27    21    22  ar
    28    22    23  ar
    29    23    24   1
    30    25    26   1
    31    26    27   1
    32    26    28   1
    33    28    29  ar
    34    28    30  ar
    35    31    32   1
    36    32    33   1
    37    33    34  ar
    38    33    35  ar
    39    34    38  ar
    40    35    36  ar
    41    36    37  ar
    42    36    39   1
    43    37    38  ar
    44    39    40   1
    45     1    41   1
    46     2    42   1
    47     5    43   1
    48    11    44   1
    49    11    45   1
    50    11    46   1
    51    12    47   1
    52    12    48   1
    53    19    49   1
    54    21    50   1
    55    22    51   1
    56    26    52   1
    57    27    53   1
    58    27    54   1
    59    27    55   1
    60    35    56   1
    61    37    57   1
    62    38    58   1
    63    40    59   1
    64    40    60   1
    65    40    61   1
@<TRIPOS>SUBSTRUCTURE
     1  C03      1

