@<TRIPOS>MOLECULE
2p4y_ligand_018
    61    65
SMALL
GAST_HUCK
****
This file was generated by PARSER (from files_GN.cpp)

@<TRIPOS>ATOM
      1 C1          9.7866    6.0588   13.9966 C.ar        1 C03      -0.0494
      2 C2          9.0779    6.0857   12.7760 C.ar        1 C03      -0.0824
      3 C3          9.7897    5.9399   11.5610 C.ar        1 C03      -0.0320
      4 C4         11.1671    5.6943   11.5776 C.ar        1 C03       0.0592
      5 C5         11.8722    5.6420   12.7979 C.ar        1 C03      -0.0175
      6 C6         11.1839    5.8359   14.0180 C.ar        1 C03       0.0845
      7 C10         9.3790    5.9272   10.2255 C.2         1 C03      -0.0105
      8 C11        10.5385    5.6446    9.4707 C.2         1 C03       0.0574
      9 N12        11.6041    5.5039   10.3104 N.pl3       1 C03      -0.2466
     10 C13         8.0455    6.0423    9.7370 C.2         1 C03       0.0368
     11 C14        10.6265    5.5145    7.9932 C.3         1 C03      -0.0027
     12 C18        12.9486    5.0778    9.9602 C.3         1 C03       0.0846
     13 O19        11.8636    5.8811   15.2059 O.3         1 C03      -0.2340
     14 C20        12.4909    4.6454   15.6207 C.3         1 C03       0.5447
     15 F21        13.0474    4.8807   16.8522 F           1 C03      -0.1402
     16 F22        13.5072    4.2502   14.7787 F           1 C03      -0.1402
     17 F23        11.5907    3.6134   15.7594 F           1 C03      -0.1402
     18 C24        14.0947    5.9120   10.4352 C.ar        1 C03      -0.0091
     19 C27        13.9231    7.2991   10.6594 C.ar        1 C03      -0.0287
     20 C28        14.9972    8.1085   11.0921 C.ar        1 C03       0.0876
     21 C29        16.2596    7.5319   11.3080 C.ar        1 C03      -0.0391
     22 C30        16.4612    6.1700   11.0562 C.ar        1 C03      -0.0631
     23 C31        15.3971    5.3575   10.6139 C.ar        1 C03       0.0319
     24 CL1        15.7787    3.7341   10.2960 Cl          1 C03      -0.0872
     25 O36        14.8484    9.4507   11.3197 O.3         1 C03      -0.3024
     26 C37        14.9736   10.2846   10.1475 C.3         1 C03       0.1302
     27 C38        15.8068   11.5290   10.5219 C.3         1 C03      -0.0222
     28 C42        13.6249   10.6427    9.6763 C.2         1 C03       0.0683
     29 O44        12.9564    9.7794    8.8825 O.co2       1 C03      -0.5660
     30 O45        12.9103   11.6140   10.2893 O.co2       1 C03      -0.5660
     31 N46         7.6257    5.4045    8.6264 N.2         1 C03      -0.1679
     32 O47         6.3532    5.6120    8.4011 O.3         1 C03      -0.1876
     33 C48         5.8829    6.4132    9.3795 C.ar        1 C03       0.1433
     34 C49         6.9336    6.7243   10.2363 C.ar        1 C03       0.0134
     35 C50         4.5787    6.8843    9.6007 C.ar        1 C03       0.0032
     36 C51         4.3306    7.7280   10.7133 C.ar        1 C03       0.0851
     37 C52         5.4028    8.0595   11.5756 C.ar        1 C03      -0.0395
     38 C53         6.7083    7.5754   11.3382 C.ar        1 C03      -0.0670
     39 O57         3.0796    8.1588   11.0863 O.3         1 C03      -0.3234
     40 C58         2.1942    8.6334   10.0499 C.3         1 C03       0.0592
     41 H1          9.2790    6.1819   14.8755 H           1 C03       0.0459
     42 H2          8.0552    6.2101   12.7784 H           1 C03       0.0504
     43 H3         12.8784    5.4703   12.8059 H           1 C03       0.0444
     44 H4          9.6888    5.7452    7.4934 H           1 C03       0.0449
     45 H5         10.9152    4.4904    7.7351 H           1 C03       0.0449
     46 H6         11.3785    6.2139    7.6154 H           1 C03       0.0449
     47 H7         13.0754    4.9811    8.8825 H           1 C03       0.0764
     48 H8         13.0295    4.0687   10.3692 H           1 C03       0.0764
     49 H9         13.0125    7.7387   10.5111 H           1 C03       0.0480
     50 H10        17.0400    8.1138   11.6279 H           1 C03       0.0487
     51 H11        17.3970    5.7727   11.1879 H           1 C03       0.0578
     52 H12        15.5106    9.7920    9.3249 H           1 C03       0.0818
     53 H13        15.8435   12.2329    9.6877 H           1 C03       0.0276
     54 H14        16.8284   11.2238   10.7567 H           1 C03       0.0276
     55 H15        15.3852   12.0324   11.3952 H           1 C03       0.0276
     56 H16         3.8272    6.5815    8.9789 H           1 C03       0.0476
     57 H17         5.2281    8.6517   12.3911 H           1 C03       0.0490
     58 H18         7.4734    7.8221   11.9715 H           1 C03       0.0582
     59 H19         1.3448    9.1116   10.5334 H           1 C03       0.0578
     60 H20         1.8195    7.7949    9.4472 H           1 C03       0.0578
     61 H21         2.6878    9.3654    9.4027 H           1 C03       0.0578
@<TRIPOS>BOND
     1     1     2  ar
     2     1     6  ar
     3     2     3  ar
     4     3     4  ar
     5     3     7   1
     6     4     5  ar
     7     4     9   1
     8     5     6  ar
     9     6    13   1
    10     7     8   2
    11     7    10   1
    12     8     9   1
    13     8    11   1
    14     9    12   1
    15    10    31   2
    16    10    34   1
    17    12    18   1
    18    13    14   1
    19    14    15   1
    20    14    16   1
    21    14    17   1
    22    18    19  ar
    23    18    23  ar
    24    19    20  ar
    25    20    21  ar
    26    20    25   1
    27    21    22  ar
    28    22    23  ar
    29    23    24   1
    30    25    26   1
    31    26    27   1
    32    26    28   1
    33    28    29  ar
    34    28    30  ar
    35    31    32   1
    36    32    33   1
    37    33    34  ar
    38    33    35  ar
    39    34    38  ar
    40    35    36  ar
    41    36    37  ar
    42    36    39   1
    43    37    38  ar
    44    39    40   1
    45     1    41   1
    46     2    42   1
    47     5    43   1
    48    11    44   1
    49    11    45   1
    50    11    46   1
    51    12    47   1
    52    12    48   1
    53    19    49   1
    54    21    50   1
    55    22    51   1
    56    26    52   1
    57    27    53   1
    58    27    54   1
    59    27    55   1
    60    35    56   1
    61    37    57   1
    62    38    58   1
    63    40    59   1
    64    40    60   1
    65    40    61   1
@<TRIPOS>SUBSTRUCTURE
     1  C03      1

