@<TRIPOS>MOLECULE
2p4y_ligand_008
    61    65
SMALL
GAST_HUCK
****
This file was generated by PARSER (from files_GN.cpp)

@<TRIPOS>ATOM
      1 C1         11.1957    5.9253    8.5223 C.ar        1 C03      -0.0494
      2 C2         12.4417    6.0378    9.1646 C.ar        1 C03      -0.0824
      3 C3         12.5389    5.7171   10.5343 C.ar        1 C03      -0.0320
      4 C4         11.4323    5.2655   11.2543 C.ar        1 C03       0.0592
      5 C5         10.2120    5.0661   10.5771 C.ar        1 C03      -0.0175
      6 C6         10.0672    5.4522    9.2228 C.ar        1 C03       0.0845
      7 C10        13.6303    5.6944   11.3928 C.2         1 C03      -0.0105
      8 C11        13.1428    5.2578   12.6314 C.2         1 C03       0.0574
      9 N12        11.7945    5.0629   12.5490 N.pl3       1 C03      -0.2466
     10 C13        14.9633    5.9317   11.0087 C.2         1 C03       0.0368
     11 C14        13.9694    5.0657   13.8490 C.3         1 C03      -0.0027
     12 C18        10.9773    4.7063   13.6974 C.3         1 C03       0.0846
     13 O19         8.8894    5.3475    8.5322 O.3         1 C03      -0.2340
     14 C20         7.7003    5.8785    9.1643 C.3         1 C03       0.5447
     15 F21         6.7220    5.9516    8.2053 F           1 C03      -0.1402
     16 F22         7.8968    7.1390    9.6907 F           1 C03      -0.1402
     17 F23         7.2110    5.0258   10.1316 F           1 C03      -0.1402
     18 C24         9.4836    4.7730   13.6162 C.ar        1 C03      -0.0091
     19 C27         8.8868    6.0188   13.2877 C.ar        1 C03      -0.0287
     20 C28         7.4906    6.2013   13.2272 C.ar        1 C03       0.0876
     21 C29         6.6646    5.0860   13.5178 C.ar        1 C03      -0.0391
     22 C30         7.2258    3.8430   13.8297 C.ar        1 C03      -0.0631
     23 C31         8.6264    3.6737   13.8853 C.ar        1 C03       0.0319
     24 CL1         9.1782    2.1184   14.2948 Cl          1 C03      -0.0872
     25 O36         7.0565    7.4873   12.9300 O.3         1 C03      -0.3024
     26 C37         5.7064    7.8140   12.5087 C.3         1 C03       0.1302
     27 C38         5.4214    7.4524   11.0324 C.3         1 C03      -0.0222
     28 C42         5.4986    9.2617   12.7222 C.2         1 C03       0.0683
     29 O44         4.3499    9.7082   13.2893 O.co2       1 C03      -0.5660
     30 O45         6.3531   10.1722   12.1990 O.co2       1 C03      -0.5660
     31 N46        15.9415    5.0096   11.1123 N.2         1 C03      -0.1679
     32 O47        17.0580    5.4649   10.6087 O.3         1 C03      -0.1876
     33 C48        16.8446    6.7188   10.1514 C.ar        1 C03       0.1433
     34 C49        15.5199    7.0538   10.3991 C.ar        1 C03       0.0134
     35 C50        17.7182    7.6139    9.5219 C.ar        1 C03       0.0032
     36 C51        17.2471    8.8991    9.1740 C.ar        1 C03       0.0851
     37 C52        15.8964    9.2428    9.4281 C.ar        1 C03      -0.0395
     38 C53        15.0241    8.3217   10.0468 C.ar        1 C03      -0.0670
     39 O57        18.0612    9.8029    8.5435 O.3         1 C03      -0.3234
     40 C58        19.0070   10.4471    9.4171 C.3         1 C03       0.0592
     41 H1         11.1105    6.1756    7.5312 H           1 C03       0.0459
     42 H2         13.2605    6.3492    8.6358 H           1 C03       0.0504
     43 H3          9.4310    4.6239   11.0457 H           1 C03       0.0444
     44 H4         15.0229    5.2767   13.6723 H           1 C03       0.0449
     45 H5         13.8833    4.0334   14.1872 H           1 C03       0.0449
     46 H6         13.6257    5.7298   14.6396 H           1 C03       0.0449
     47 H7         11.2333    5.3904   14.5110 H           1 C03       0.0764
     48 H8         11.3070    3.7194   14.0193 H           1 C03       0.0764
     49 H9          9.4917    6.8135   13.0711 H           1 C03       0.0480
     50 H10         5.6493    5.1666   13.5037 H           1 C03       0.0487
     51 H11         6.5982    3.0562   14.0345 H           1 C03       0.0578
     52 H12         4.9812    7.2995   13.1424 H           1 C03       0.0818
     53 H13         4.3850    7.6989   10.7672 H           1 C03       0.0276
     54 H14         5.5622    6.3768   10.8693 H           1 C03       0.0276
     55 H15         6.0852    8.0041   10.3616 H           1 C03       0.0276
     56 H16        18.6869    7.3395    9.3285 H           1 C03       0.0476
     57 H17        15.5495   10.1677    9.1636 H           1 C03       0.0490
     58 H18        14.0512    8.5784   10.2397 H           1 C03       0.0582
     59 H19        19.5572   11.1857    8.8375 H           1 C03       0.0578
     60 H20        19.7249    9.7270    9.8171 H           1 C03       0.0578
     61 H21        18.5084   10.9592   10.2444 H           1 C03       0.0578
@<TRIPOS>BOND
     1     1     2  ar
     2     1     6  ar
     3     2     3  ar
     4     3     4  ar
     5     3     7   1
     6     4     5  ar
     7     4     9   1
     8     5     6  ar
     9     6    13   1
    10     7     8   2
    11     7    10   1
    12     8     9   1
    13     8    11   1
    14     9    12   1
    15    10    31   2
    16    10    34   1
    17    12    18   1
    18    13    14   1
    19    14    15   1
    20    14    16   1
    21    14    17   1
    22    18    19  ar
    23    18    23  ar
    24    19    20  ar
    25    20    21  ar
    26    20    25   1
    27    21    22  ar
    28    22    23  ar
    29    23    24   1
    30    25    26   1
    31    26    27   1
    32    26    28   1
    33    28    29  ar
    34    28    30  ar
    35    31    32   1
    36    32    33   1
    37    33    34  ar
    38    33    35  ar
    39    34    38  ar
    40    35    36  ar
    41    36    37  ar
    42    36    39   1
    43    37    38  ar
    44    39    40   1
    45     1    41   1
    46     2    42   1
    47     5    43   1
    48    11    44   1
    49    11    45   1
    50    11    46   1
    51    12    47   1
    52    12    48   1
    53    19    49   1
    54    21    50   1
    55    22    51   1
    56    26    52   1
    57    27    53   1
    58    27    54   1
    59    27    55   1
    60    35    56   1
    61    37    57   1
    62    38    58   1
    63    40    59   1
    64    40    60   1
    65    40    61   1
@<TRIPOS>SUBSTRUCTURE
     1  C03      1

