@<TRIPOS>MOLECULE
2p4y_ligand_053
    61    65
SMALL
GAST_HUCK
****
This file was generated by PARSER (from files_GN.cpp)

@<TRIPOS>ATOM
      1 C1          5.4309   10.5138   14.6699 C.ar        1 C03      -0.0494
      2 C2          6.1535    9.4539   14.0868 C.ar        1 C03      -0.0824
      3 C3          5.6386    8.8173   12.9350 C.ar        1 C03      -0.0320
      4 C4          4.4382    9.2476   12.3643 C.ar        1 C03       0.0592
      5 C5          3.7356   10.3348   12.9222 C.ar        1 C03      -0.0175
      6 C6          4.2118   10.9441   14.1012 C.ar        1 C03       0.0845
      7 C10         6.1125    7.7645   12.1526 C.2         1 C03      -0.0105
      8 C11         5.1438    7.5545   11.1531 C.2         1 C03       0.0574
      9 N12         4.1353    8.4587   11.3095 N.pl3       1 C03      -0.2466
     10 C13         7.3382    7.0905   12.3698 C.2         1 C03       0.0368
     11 C14         5.1744    6.4820   10.1280 C.3         1 C03      -0.0027
     12 C18         2.9322    8.6009   10.5146 C.3         1 C03       0.0846
     13 O19         3.4991   11.9596   14.6837 O.3         1 C03      -0.2340
     14 C20         2.4816   11.5354   15.6140 C.3         1 C03       0.5447
     15 F21         1.8342   12.6633   16.0499 F           1 C03      -0.1402
     16 F22         3.0148   10.9105   16.7179 F           1 C03      -0.1402
     17 F23         1.5370   10.7077   15.0467 F           1 C03      -0.1402
     18 C24         1.6069    8.5406   11.2158 C.ar        1 C03      -0.0091
     19 C27         1.5096    8.2656   12.6071 C.ar        1 C03      -0.0287
     20 C28         0.2716    8.2856   13.2868 C.ar        1 C03       0.0876
     21 C29        -0.9005    8.5720   12.5623 C.ar        1 C03      -0.0391
     22 C30        -0.8369    8.8123   11.1800 C.ar        1 C03      -0.0631
     23 C31         0.4005    8.8003   10.5063 C.ar        1 C03       0.0319
     24 CL1         0.3659    9.1306    8.8415 Cl          1 C03      -0.0872
     25 O36         0.1598    8.1615   14.6467 O.3         1 C03      -0.3024
     26 C37         0.7560    7.0356   15.3205 C.3         1 C03       0.1302
     27 C38        -0.3873    6.2169   15.9696 C.3         1 C03      -0.0222
     28 C42         1.7265    7.5812   16.2949 C.2         1 C03       0.0683
     29 O44         1.6762    7.2920   17.6200 O.co2       1 C03      -0.5660
     30 O45         2.6686    8.4630   15.8826 O.co2       1 C03      -0.5660
     31 N46         7.8404    6.8222   13.5945 N.2         1 C03      -0.1679
     32 O47         9.0051    6.2309   13.5081 O.3         1 C03      -0.1876
     33 C48         9.3170    6.1037   12.2019 C.ar        1 C03       0.1433
     34 C49         8.2800    6.6470   11.4469 C.ar        1 C03       0.0134
     35 C50        10.4626    5.5558   11.6005 C.ar        1 C03       0.0032
     36 C51        10.5590    5.5594   10.1921 C.ar        1 C03       0.0851
     37 C52         9.5033    6.1050    9.4188 C.ar        1 C03      -0.0395
     38 C53         8.3704    6.6790   10.0417 C.ar        1 C03      -0.0670
     39 O57        11.6505    4.9949    9.5926 O.3         1 C03      -0.3234
     40 C58        12.7086    5.9332    9.3305 C.3         1 C03       0.0592
     41 H1          5.7935   10.9751   15.5053 H           1 C03       0.0459
     42 H2          7.0319    9.1507   14.5107 H           1 C03       0.0504
     43 H3          2.8705   10.6690   12.4924 H           1 C03       0.0444
     44 H4          6.0251    5.8114   10.2573 H           1 C03       0.0449
     45 H5          5.2316    6.9283    9.1363 H           1 C03       0.0449
     46 H6          4.2610    5.8856   10.1854 H           1 C03       0.0449
     47 H7          2.9055    7.8560    9.7193 H           1 C03       0.0764
     48 H8          3.0064    9.5728   10.0190 H           1 C03       0.0764
     49 H9          2.3479    8.0615   13.1448 H           1 C03       0.0480
     50 H10        -1.8020    8.6171   13.0441 H           1 C03       0.0487
     51 H11        -1.7055    9.0123   10.6749 H           1 C03       0.0578
     52 H12         1.2927    6.3687   14.6410 H           1 C03       0.0818
     53 H13         0.0157    5.3625   16.5185 H           1 C03       0.0276
     54 H14        -1.0625    5.8405   15.1960 H           1 C03       0.0276
     55 H15        -0.9652    6.8393   16.6567 H           1 C03       0.0276
     56 H16        11.2094    5.1644   12.1782 H           1 C03       0.0476
     57 H17         9.5645    6.0830    8.3983 H           1 C03       0.0490
     58 H18         7.6308    7.1055    9.4823 H           1 C03       0.0582
     59 H19        13.5550    5.3879    8.9110 H           1 C03       0.0578
     60 H20        13.0456    6.4285   10.2452 H           1 C03       0.0578
     61 H21        12.3942    6.6848    8.6021 H           1 C03       0.0578
@<TRIPOS>BOND
     1     1     2  ar
     2     1     6  ar
     3     2     3  ar
     4     3     4  ar
     5     3     7   1
     6     4     5  ar
     7     4     9   1
     8     5     6  ar
     9     6    13   1
    10     7     8   2
    11     7    10   1
    12     8     9   1
    13     8    11   1
    14     9    12   1
    15    10    31   2
    16    10    34   1
    17    12    18   1
    18    13    14   1
    19    14    15   1
    20    14    16   1
    21    14    17   1
    22    18    19  ar
    23    18    23  ar
    24    19    20  ar
    25    20    21  ar
    26    20    25   1
    27    21    22  ar
    28    22    23  ar
    29    23    24   1
    30    25    26   1
    31    26    27   1
    32    26    28   1
    33    28    29  ar
    34    28    30  ar
    35    31    32   1
    36    32    33   1
    37    33    34  ar
    38    33    35  ar
    39    34    38  ar
    40    35    36  ar
    41    36    37  ar
    42    36    39   1
    43    37    38  ar
    44    39    40   1
    45     1    41   1
    46     2    42   1
    47     5    43   1
    48    11    44   1
    49    11    45   1
    50    11    46   1
    51    12    47   1
    52    12    48   1
    53    19    49   1
    54    21    50   1
    55    22    51   1
    56    26    52   1
    57    27    53   1
    58    27    54   1
    59    27    55   1
    60    35    56   1
    61    37    57   1
    62    38    58   1
    63    40    59   1
    64    40    60   1
    65    40    61   1
@<TRIPOS>SUBSTRUCTURE
     1  C03      1

