@<TRIPOS>MOLECULE
2p4y_ligand_069
    61    65
SMALL
GAST_HUCK
****
This file was generated by PARSER (from files_GN.cpp)

@<TRIPOS>ATOM
      1 C1         11.5684    5.4265   15.3471 C.ar        1 C03      -0.0494
      2 C2         12.5942    5.4847   14.3864 C.ar        1 C03      -0.0824
      3 C3         12.2875    5.1988   13.0404 C.ar        1 C03      -0.0320
      4 C4         10.9708    4.9918   12.6175 C.ar        1 C03       0.0592
      5 C5          9.9479    4.9973   13.5946 C.ar        1 C03      -0.0175
      6 C6         10.2425    5.1412   14.9641 C.ar        1 C03       0.0845
      7 C10        13.1130    5.1028   11.9250 C.2         1 C03      -0.0105
      8 C11        12.2618    4.8793   10.8336 C.2         1 C03       0.0574
      9 N12        10.9670    4.8170   11.2653 N.pl3       1 C03      -0.2466
     10 C13        14.5203    5.2397   11.9070 C.2         1 C03       0.0368
     11 C14        12.6923    4.6911    9.4246 C.3         1 C03      -0.0027
     12 C18         9.8562    4.6050   10.3499 C.3         1 C03       0.0846
     13 O19         9.2536    5.0875   15.9167 O.3         1 C03      -0.2340
     14 C20         8.6605    3.7924   16.1643 C.3         1 C03       0.5447
     15 F21         7.8476    3.9086   17.2623 F           1 C03      -0.1402
     16 F22         9.5822    2.8117   16.4490 F           1 C03      -0.1402
     17 F23         7.8659    3.3728   15.1262 F           1 C03      -0.1402
     18 C24         8.4784    4.5332   10.9112 C.ar        1 C03      -0.0091
     19 C27         7.7530    5.7398   11.0797 C.ar        1 C03      -0.0287
     20 C28         6.5128    5.7472   11.7480 C.ar        1 C03       0.0876
     21 C29         6.0107    4.5499   12.2809 C.ar        1 C03      -0.0391
     22 C30         6.6834    3.3385   12.0702 C.ar        1 C03      -0.0631
     23 C31         7.9171    3.3210   11.3940 C.ar        1 C03       0.0319
     24 CL1         8.6929    1.8138   11.2819 Cl          1 C03      -0.0872
     25 O36         5.7559    6.8752   11.9244 O.3         1 C03      -0.3024
     26 C37         5.2871    7.5853   10.7531 C.3         1 C03       0.1302
     27 C38         4.0780    8.4451   11.1926 C.3         1 C03      -0.0222
     28 C42         4.9105    6.7446    9.5885 C.2         1 C03       0.0683
     29 O44         5.5833    6.8597    8.4212 O.co2       1 C03      -0.5660
     30 O45         4.0500    5.7138    9.7242 O.co2       1 C03      -0.5660
     31 N46        15.1872    5.9978   11.0110 N.2         1 C03      -0.1679
     32 O47        16.4760    5.9696   11.2401 O.3         1 C03      -0.1876
     33 C48        16.6979    5.1853   12.3168 C.ar        1 C03       0.1433
     34 C49        15.4753    4.6941   12.7653 C.ar        1 C03       0.0134
     35 C50        17.9040    4.8630   12.9572 C.ar        1 C03       0.0032
     36 C51        17.8649    4.0529   14.1165 C.ar        1 C03       0.0851
     37 C52        16.6291    3.5199   14.5552 C.ar        1 C03      -0.0395
     38 C53        15.4321    3.8178   13.8686 C.ar        1 C03      -0.0670
     39 O57        19.0111    3.7125   14.7909 O.3         1 C03      -0.3234
     40 C58        19.6018    4.7926   15.5371 C.3         1 C03       0.0592
     41 H1         11.7887    5.5951   16.3298 H           1 C03       0.0459
     42 H2         13.5416    5.7212   14.6744 H           1 C03       0.0504
     43 H3          8.9723    4.8807   13.3425 H           1 C03       0.0444
     44 H4         13.7743    4.7053    9.3096 H           1 C03       0.0449
     45 H5         12.2703    5.4858    8.8059 H           1 C03       0.0449
     46 H6         12.3373    3.7242    9.0645 H           1 C03       0.0449
     47 H7         10.0389    3.6840    9.7902 H           1 C03       0.0764
     48 H8          9.8833    5.4085    9.6099 H           1 C03       0.0764
     49 H9          8.1412    6.6284   10.7491 H           1 C03       0.0480
     50 H10         5.1355    4.5531   12.8018 H           1 C03       0.0487
     51 H11         6.2739    2.4724   12.4379 H           1 C03       0.0578
     52 H12         6.0856    8.2651   10.4480 H           1 C03       0.0818
     53 H13         3.6664    8.9992   10.3466 H           1 C03       0.0276
     54 H14         4.3908    9.1579   11.9570 H           1 C03       0.0276
     55 H15         3.2871    7.8192   11.6086 H           1 C03       0.0276
     56 H16        18.7847    5.2278   12.5976 H           1 C03       0.0476
     57 H17        16.6004    2.9147   15.3801 H           1 C03       0.0490
     58 H18        14.5508    3.4093   14.1781 H           1 C03       0.0582
     59 H19        20.4693    4.4052   16.0713 H           1 C03       0.0578
     60 H20        18.9020    5.2028   16.2694 H           1 C03       0.0578
     61 H21        19.9420    5.5908   14.8732 H           1 C03       0.0578
@<TRIPOS>BOND
     1     1     2  ar
     2     1     6  ar
     3     2     3  ar
     4     3     4  ar
     5     3     7   1
     6     4     5  ar
     7     4     9   1
     8     5     6  ar
     9     6    13   1
    10     7     8   2
    11     7    10   1
    12     8     9   1
    13     8    11   1
    14     9    12   1
    15    10    31   2
    16    10    34   1
    17    12    18   1
    18    13    14   1
    19    14    15   1
    20    14    16   1
    21    14    17   1
    22    18    19  ar
    23    18    23  ar
    24    19    20  ar
    25    20    21  ar
    26    20    25   1
    27    21    22  ar
    28    22    23  ar
    29    23    24   1
    30    25    26   1
    31    26    27   1
    32    26    28   1
    33    28    29  ar
    34    28    30  ar
    35    31    32   1
    36    32    33   1
    37    33    34  ar
    38    33    35  ar
    39    34    38  ar
    40    35    36  ar
    41    36    37  ar
    42    36    39   1
    43    37    38  ar
    44    39    40   1
    45     1    41   1
    46     2    42   1
    47     5    43   1
    48    11    44   1
    49    11    45   1
    50    11    46   1
    51    12    47   1
    52    12    48   1
    53    19    49   1
    54    21    50   1
    55    22    51   1
    56    26    52   1
    57    27    53   1
    58    27    54   1
    59    27    55   1
    60    35    56   1
    61    37    57   1
    62    38    58   1
    63    40    59   1
    64    40    60   1
    65    40    61   1
@<TRIPOS>SUBSTRUCTURE
     1  C03      1

