@<TRIPOS>MOLECULE
2p4y_ligand_068
    61    65
SMALL
GAST_HUCK
****
This file was generated by PARSER (from files_GN.cpp)

@<TRIPOS>ATOM
      1 C1         14.0580   10.0195    9.0242 C.ar        1 C03      -0.0494
      2 C2         12.8743   10.7796    8.9048 C.ar        1 C03      -0.0824
      3 C3         12.9524   12.1823    9.0025 C.ar        1 C03      -0.0320
      4 C4         14.1678   12.8310    9.2341 C.ar        1 C03       0.0592
      5 C5         15.3482   12.0644    9.3770 C.ar        1 C03      -0.0175
      6 C6         15.2927   10.6570    9.2810 C.ar        1 C03       0.0845
      7 C10        11.9702   13.1499    8.8667 C.2         1 C03      -0.0105
      8 C11        12.6101   14.3838    8.9990 C.2         1 C03       0.0574
      9 N12        13.9420   14.1721    9.2297 N.pl3       1 C03      -0.2466
     10 C13        10.6106   12.9041    8.6309 C.2         1 C03       0.0368
     11 C14        11.9188   15.6907    8.8755 C.3         1 C03      -0.0027
     12 C18        14.9611   15.1911    9.3356 C.3         1 C03       0.0846
     13 O19        16.4796    9.9666    9.3420 O.3         1 C03      -0.2340
     14 C20        16.5446    8.8272   10.2281 C.3         1 C03       0.5447
     15 F21        17.8652    8.4724   10.3245 F           1 C03      -0.1402
     16 F22        15.8580    7.7417    9.7273 F           1 C03      -0.1402
     17 F23        16.0962    9.0913   11.5054 F           1 C03      -0.1402
     18 C24        14.5925   16.3217   10.2392 C.ar        1 C03      -0.0091
     19 C27        14.3712   17.5998    9.6700 C.ar        1 C03      -0.0287
     20 C28        13.9380   18.6920   10.4431 C.ar        1 C03       0.0876
     21 C29        13.7679   18.5228   11.8287 C.ar        1 C03      -0.0391
     22 C30        14.0151   17.2699   12.4248 C.ar        1 C03      -0.0631
     23 C31        14.4326   16.1735   11.6406 C.ar        1 C03       0.0319
     24 CL1        14.7341   14.7055   12.4308 Cl          1 C03      -0.0872
     25 O36        13.7666   19.9405    9.9075 O.3         1 C03      -0.3024
     26 C37        12.7813   20.1369    8.8666 C.3         1 C03       0.1302
     27 C38        11.4020   19.5058    9.1925 C.3         1 C03      -0.0222
     28 C42        13.3201   19.7743    7.5312 C.2         1 C03       0.0683
     29 O44        12.5193   19.5230    6.4619 O.co2       1 C03      -0.5660
     30 O45        14.6545   19.6260    7.3669 O.co2       1 C03      -0.5660
     31 N46        10.0664   12.6413    7.4310 N.2         1 C03      -0.1679
     32 O47         8.7780   12.4343    7.5604 O.3         1 C03      -0.1876
     33 C48         8.4455   12.5460    8.8689 C.ar        1 C03       0.1433
     34 C49         9.5976   12.8550    9.5782 C.ar        1 C03       0.0134
     35 C50         7.2126   12.3786    9.5242 C.ar        1 C03       0.0032
     36 C51         7.1667   12.5125   10.9312 C.ar        1 C03       0.0851
     37 C52         8.3473   12.8211   11.6477 C.ar        1 C03      -0.0395
     38 C53         9.5729   13.0094   10.9757 C.ar        1 C03      -0.0670
     39 O57         6.0294   12.2367   11.6391 O.3         1 C03      -0.3234
     40 C58         4.8829   13.0270   11.2793 C.3         1 C03       0.0592
     41 H1         14.0299    8.9998    8.9148 H           1 C03       0.0459
     42 H2         11.9809   10.3140    8.7242 H           1 C03       0.0504
     43 H3         16.2442   12.5249    9.5311 H           1 C03       0.0444
     44 H4         10.8932   15.5836    8.5283 H           1 C03       0.0449
     45 H5         12.4453   16.3205    8.1618 H           1 C03       0.0449
     46 H6         11.8952   16.1820    9.8457 H           1 C03       0.0449
     47 H7         15.1502   15.5370    8.3164 H           1 C03       0.0764
     48 H8         15.9089   14.7960    9.6938 H           1 C03       0.0764
     49 H9         14.4903   17.7500    8.6615 H           1 C03       0.0480
     50 H10        13.4731   19.3070   12.4146 H           1 C03       0.0487
     51 H11        13.8921   17.1624   13.4356 H           1 C03       0.0578
     52 H12        12.6256   21.2165    8.8278 H           1 C03       0.0818
     53 H13        10.6448   19.8492    8.4794 H           1 C03       0.0276
     54 H14        11.0877   19.7984   10.1964 H           1 C03       0.0276
     55 H15        11.4569   18.4147    9.1474 H           1 C03       0.0276
     56 H16         6.3788   12.1383    8.9865 H           1 C03       0.0476
     57 H17         8.3215   12.8924   12.6650 H           1 C03       0.0490
     58 H18        10.4274   13.2234   11.4925 H           1 C03       0.0582
     59 H19         4.0758   12.7954   11.9776 H           1 C03       0.0578
     60 H20         4.5414   12.7817   10.2700 H           1 C03       0.0578
     61 H21         5.0924   14.0986   11.3474 H           1 C03       0.0578
@<TRIPOS>BOND
     1     1     2  ar
     2     1     6  ar
     3     2     3  ar
     4     3     4  ar
     5     3     7   1
     6     4     5  ar
     7     4     9   1
     8     5     6  ar
     9     6    13   1
    10     7     8   2
    11     7    10   1
    12     8     9   1
    13     8    11   1
    14     9    12   1
    15    10    31   2
    16    10    34   1
    17    12    18   1
    18    13    14   1
    19    14    15   1
    20    14    16   1
    21    14    17   1
    22    18    19  ar
    23    18    23  ar
    24    19    20  ar
    25    20    21  ar
    26    20    25   1
    27    21    22  ar
    28    22    23  ar
    29    23    24   1
    30    25    26   1
    31    26    27   1
    32    26    28   1
    33    28    29  ar
    34    28    30  ar
    35    31    32   1
    36    32    33   1
    37    33    34  ar
    38    33    35  ar
    39    34    38  ar
    40    35    36  ar
    41    36    37  ar
    42    36    39   1
    43    37    38  ar
    44    39    40   1
    45     1    41   1
    46     2    42   1
    47     5    43   1
    48    11    44   1
    49    11    45   1
    50    11    46   1
    51    12    47   1
    52    12    48   1
    53    19    49   1
    54    21    50   1
    55    22    51   1
    56    26    52   1
    57    27    53   1
    58    27    54   1
    59    27    55   1
    60    35    56   1
    61    37    57   1
    62    38    58   1
    63    40    59   1
    64    40    60   1
    65    40    61   1
@<TRIPOS>SUBSTRUCTURE
     1  C03      1

