@<TRIPOS>MOLECULE
2p4y_ligand_066
    61    65
SMALL
GAST_HUCK
****
This file was generated by PARSER (from files_GN.cpp)

@<TRIPOS>ATOM
      1 C1          6.5873    5.5341    8.1840 C.ar        1 C03      -0.0494
      2 C2          7.9208    5.6865    8.6105 C.ar        1 C03      -0.0824
      3 C3          8.1869    5.7755    9.9886 C.ar        1 C03      -0.0320
      4 C4          7.1627    5.6784   10.9328 C.ar        1 C03       0.0592
      5 C5          5.8352    5.4830   10.5016 C.ar        1 C03      -0.0175
      6 C6          5.5369    5.4640    9.1219 C.ar        1 C03       0.0845
      7 C10         9.3841    5.9272   10.6802 C.2         1 C03      -0.0105
      8 C11         9.0438    5.9389   12.0423 C.2         1 C03       0.0574
      9 N12         7.6920    5.8118   12.1740 N.pl3       1 C03      -0.2466
     10 C13        10.6520    6.0871   10.0770 C.2         1 C03       0.0368
     11 C14        10.0057    6.0982   13.1559 C.3         1 C03      -0.0027
     12 C18         6.9322    5.8399   13.4072 C.3         1 C03       0.0846
     13 O19         4.2266    5.3530    8.7344 O.3         1 C03      -0.2340
     14 C20         3.6248    6.5843    8.2770 C.3         1 C03       0.5447
     15 F21         2.2737    6.3691    8.1793 F           1 C03      -0.1402
     16 F22         4.0781    6.9392    7.0307 F           1 C03      -0.1402
     17 F23         3.8108    7.6449    9.1390 F           1 C03      -0.1402
     18 C24         6.5077    7.2220   13.8105 C.ar        1 C03      -0.0091
     19 C27         5.4408    7.8404   13.1157 C.ar        1 C03      -0.0287
     20 C28         4.9066    9.0788   13.5173 C.ar        1 C03       0.0876
     21 C29         5.5183    9.7807   14.5717 C.ar        1 C03      -0.0391
     22 C30         6.5709    9.1861   15.2832 C.ar        1 C03      -0.0631
     23 C31         7.0394    7.9072   14.9450 C.ar        1 C03       0.0319
     24 CL1         8.1656    7.2196   16.0118 Cl          1 C03      -0.0872
     25 O36         3.7712    9.5812   12.9296 O.3         1 C03      -0.3024
     26 C37         2.4695    9.2132   13.4645 C.3         1 C03       0.1302
     27 C38         2.4209    8.4065   14.8021 C.3         1 C03      -0.0222
     28 C42         1.6837    8.5329   12.4124 C.2         1 C03       0.0683
     29 O44         0.4242    8.1131   12.6692 O.co2       1 C03      -0.5660
     30 O45         1.9926    8.7094   11.1130 O.co2       1 C03      -0.5660
     31 N46        10.9090    6.9852    9.1041 N.2         1 C03      -0.1679
     32 O47        12.1603    6.9170    8.7322 O.3         1 C03      -0.1876
     33 C48        12.7751    5.9500    9.4491 C.ar        1 C03       0.1433
     34 C49        11.8367    5.3917   10.3142 C.ar        1 C03       0.0134
     35 C50        14.0930    5.4956    9.4077 C.ar        1 C03       0.0032
     36 C51        14.4952    4.4292   10.2611 C.ar        1 C03       0.0851
     37 C52        13.5276    3.8604   11.1281 C.ar        1 C03      -0.0395
     38 C53        12.1977    4.3294   11.1562 C.ar        1 C03      -0.0670
     39 O57        15.7538    3.8731   10.3276 O.3         1 C03      -0.3234
     40 C58        16.8049    4.3102    9.4504 C.3         1 C03       0.0592
     41 H1          6.3790    5.4680    7.1865 H           1 C03       0.0459
     42 H2          8.6772    5.7290    7.9294 H           1 C03       0.0504
     43 H3          5.0794    5.3626   11.1706 H           1 C03       0.0444
     44 H4         11.0191    6.2836   12.8101 H           1 C03       0.0449
     45 H5          9.9995    5.1974   13.7692 H           1 C03       0.0449
     46 H6          9.7196    6.9504   13.7569 H           1 C03       0.0449
     47 H7          7.5184    5.3506   14.1867 H           1 C03       0.0764
     48 H8          6.0368    5.2169   13.3215 H           1 C03       0.0764
     49 H9          4.9819    7.3720   12.3407 H           1 C03       0.0480
     50 H10         5.1529   10.6928   14.8490 H           1 C03       0.0487
     51 H11         6.9474    9.6876   16.0898 H           1 C03       0.0578
     52 H12         1.9544   10.1598   13.6613 H           1 C03       0.0818
     53 H13         1.3944    8.3009   15.1542 H           1 C03       0.0276
     54 H14         2.9827    8.9303   15.5752 H           1 C03       0.0276
     55 H15         2.8542    7.4152   14.6651 H           1 C03       0.0276
     56 H16        14.7517    5.9274    8.7577 H           1 C03       0.0476
     57 H17        13.7909    3.0902   11.7488 H           1 C03       0.0490
     58 H18        11.5133    3.8985   11.7797 H           1 C03       0.0582
     59 H19        17.6961    3.7181    9.6623 H           1 C03       0.0578
     60 H20        17.0380    5.3630    9.6209 H           1 C03       0.0578
     61 H21        16.5268    4.1557    8.4062 H           1 C03       0.0578
@<TRIPOS>BOND
     1     1     2  ar
     2     1     6  ar
     3     2     3  ar
     4     3     4  ar
     5     3     7   1
     6     4     5  ar
     7     4     9   1
     8     5     6  ar
     9     6    13   1
    10     7     8   2
    11     7    10   1
    12     8     9   1
    13     8    11   1
    14     9    12   1
    15    10    31   2
    16    10    34   1
    17    12    18   1
    18    13    14   1
    19    14    15   1
    20    14    16   1
    21    14    17   1
    22    18    19  ar
    23    18    23  ar
    24    19    20  ar
    25    20    21  ar
    26    20    25   1
    27    21    22  ar
    28    22    23  ar
    29    23    24   1
    30    25    26   1
    31    26    27   1
    32    26    28   1
    33    28    29  ar
    34    28    30  ar
    35    31    32   1
    36    32    33   1
    37    33    34  ar
    38    33    35  ar
    39    34    38  ar
    40    35    36  ar
    41    36    37  ar
    42    36    39   1
    43    37    38  ar
    44    39    40   1
    45     1    41   1
    46     2    42   1
    47     5    43   1
    48    11    44   1
    49    11    45   1
    50    11    46   1
    51    12    47   1
    52    12    48   1
    53    19    49   1
    54    21    50   1
    55    22    51   1
    56    26    52   1
    57    27    53   1
    58    27    54   1
    59    27    55   1
    60    35    56   1
    61    37    57   1
    62    38    58   1
    63    40    59   1
    64    40    60   1
    65    40    61   1
@<TRIPOS>SUBSTRUCTURE
     1  C03      1

