@<TRIPOS>MOLECULE
2p4y_ligand_075
    61    65
SMALL
GAST_HUCK
****
This file was generated by PARSER (from files_GN.cpp)

@<TRIPOS>ATOM
      1 C1         13.7215    9.9933    9.0674 C.ar        1 C03      -0.0494
      2 C2         12.4981   10.6147    8.7517 C.ar        1 C03      -0.0824
      3 C3         12.5160   11.8674    8.1070 C.ar        1 C03      -0.0320
      4 C4         13.7173   12.5047    7.7908 C.ar        1 C03       0.0592
      5 C5         14.9422   11.8817    8.1169 C.ar        1 C03      -0.0175
      6 C6         14.9460   10.6221    8.7564 C.ar        1 C03       0.0845
      7 C10        11.4835   12.6727    7.6496 C.2         1 C03      -0.0105
      8 C11        12.0790   13.7892    7.0489 C.2         1 C03       0.0574
      9 N12        13.4302   13.6896    7.1872 N.pl3       1 C03      -0.2466
     10 C13        10.1146   12.4511    7.8585 C.2         1 C03       0.0368
     11 C14        11.3426   14.9189    6.4277 C.3         1 C03      -0.0027
     12 C18        14.4038   14.6713    6.7745 C.3         1 C03       0.0846
     13 O19        16.1299    9.9622    8.9571 O.3         1 C03      -0.2340
     14 C20        16.7810   10.1950   10.2195 C.3         1 C03       0.5447
     15 F21        17.9813    9.5325   10.1837 F           1 C03      -0.1402
     16 F22        16.0613    9.6912   11.2773 F           1 C03      -0.1402
     17 F23        17.0555   11.5245   10.4378 F           1 C03      -0.1402
     18 C24        14.2334   16.0455    7.3399 C.ar        1 C03      -0.0091
     19 C27        14.4837   17.1366    6.4710 C.ar        1 C03      -0.0287
     20 C28        14.3449   18.4690    6.8983 C.ar        1 C03       0.0876
     21 C29        13.9917   18.7317    8.2327 C.ar        1 C03      -0.0391
     22 C30        13.7593   17.6707    9.1213 C.ar        1 C03      -0.0631
     23 C31        13.8959   16.3314    8.6941 C.ar        1 C03       0.0319
     24 CL1        13.6635   15.1410    9.8800 Cl          1 C03      -0.0872
     25 O36        14.6902   19.4947    6.0625 O.3         1 C03      -0.3024
     26 C37        13.6184   20.0887    5.2882 C.3         1 C03       0.1302
     27 C38        13.1475   19.1601    4.1371 C.3         1 C03      -0.0222
     28 C42        14.0858   21.3810    4.7379 C.2         1 C03       0.0683
     29 O44        13.2388   22.1735    4.0448 O.co2       1 C03      -0.5660
     30 O45        15.3399   21.8420    4.9575 O.co2       1 C03      -0.5660
     31 N46         9.2166   12.1628    6.8972 N.2         1 C03      -0.1679
     32 O47         8.0169   12.0704    7.4152 O.3         1 C03      -0.1876
     33 C48         8.0990   12.3095    8.7424 C.ar        1 C03       0.1433
     34 C49         9.4287   12.5614    9.0598 C.ar        1 C03       0.0134
     35 C50         7.0969   12.3438    9.7239 C.ar        1 C03       0.0032
     36 C51         7.4611   12.6200   11.0618 C.ar        1 C03       0.0851
     37 C52         8.8098   12.9079   11.3788 C.ar        1 C03      -0.0395
     38 C53         9.8064   12.8793   10.3801 C.ar        1 C03      -0.0670
     39 O57         6.5038   12.6686   12.0367 O.3         1 C03      -0.3234
     40 C58         6.2127   11.3819   12.6118 C.3         1 C03       0.0592
     41 H1         13.7184    9.0654    9.4978 H           1 C03       0.0459
     42 H2         11.6124   10.1449    8.9502 H           1 C03       0.0504
     43 H3         15.8336   12.3139    7.8737 H           1 C03       0.0444
     44 H4         10.2704   14.7297    6.3676 H           1 C03       0.0449
     45 H5         11.7115   15.0906    5.4153 H           1 C03       0.0449
     46 H6         11.4898   15.8215    7.0198 H           1 C03       0.0449
     47 H7         14.3652   14.6888    5.6811 H           1 C03       0.0764
     48 H8         15.4176   14.3693    7.0300 H           1 C03       0.0764
     49 H9         14.7944   16.9700    5.5106 H           1 C03       0.0480
     50 H10        13.9237   19.6989    8.5620 H           1 C03       0.0487
     51 H11        13.5096   17.8885   10.0898 H           1 C03       0.0578
     52 H12        12.7654   20.3137    5.9372 H           1 C03       0.0818
     53 H13        12.3807   19.6465    3.5319 H           1 C03       0.0276
     54 H14        12.7167   18.2449    4.5426 H           1 C03       0.0276
     55 H15        13.9893   18.8950    3.4947 H           1 C03       0.0276
     56 H16         6.1228   12.1783    9.4692 H           1 C03       0.0476
     57 H17         9.0649   13.1423   12.3403 H           1 C03       0.0490
     58 H18        10.7805   13.0891   10.6097 H           1 C03       0.0582
     59 H19         5.4345   11.5138   13.3643 H           1 C03       0.0578
     60 H20         7.0914   10.9536   13.1005 H           1 C03       0.0578
     61 H21         5.8408   10.6813   11.8602 H           1 C03       0.0578
@<TRIPOS>BOND
     1     1     2  ar
     2     1     6  ar
     3     2     3  ar
     4     3     4  ar
     5     3     7   1
     6     4     5  ar
     7     4     9   1
     8     5     6  ar
     9     6    13   1
    10     7     8   2
    11     7    10   1
    12     8     9   1
    13     8    11   1
    14     9    12   1
    15    10    31   2
    16    10    34   1
    17    12    18   1
    18    13    14   1
    19    14    15   1
    20    14    16   1
    21    14    17   1
    22    18    19  ar
    23    18    23  ar
    24    19    20  ar
    25    20    21  ar
    26    20    25   1
    27    21    22  ar
    28    22    23  ar
    29    23    24   1
    30    25    26   1
    31    26    27   1
    32    26    28   1
    33    28    29  ar
    34    28    30  ar
    35    31    32   1
    36    32    33   1
    37    33    34  ar
    38    33    35  ar
    39    34    38  ar
    40    35    36  ar
    41    36    37  ar
    42    36    39   1
    43    37    38  ar
    44    39    40   1
    45     1    41   1
    46     2    42   1
    47     5    43   1
    48    11    44   1
    49    11    45   1
    50    11    46   1
    51    12    47   1
    52    12    48   1
    53    19    49   1
    54    21    50   1
    55    22    51   1
    56    26    52   1
    57    27    53   1
    58    27    54   1
    59    27    55   1
    60    35    56   1
    61    37    57   1
    62    38    58   1
    63    40    59   1
    64    40    60   1
    65    40    61   1
@<TRIPOS>SUBSTRUCTURE
     1  C03      1

