@<TRIPOS>MOLECULE
2p4y_ligand_043
    61    65
SMALL
GAST_HUCK
****
This file was generated by PARSER (from files_GN.cpp)

@<TRIPOS>ATOM
      1 C1         16.9100   14.7260   10.8413 C.ar        1 C03      -0.0494
      2 C2         16.6199   13.5556   10.1176 C.ar        1 C03      -0.0824
      3 C3         15.3893   13.4751    9.4514 C.ar        1 C03      -0.0320
      4 C4         14.4539   14.5114    9.4936 C.ar        1 C03       0.0592
      5 C5         14.7476   15.6653   10.2508 C.ar        1 C03      -0.0175
      6 C6         15.9847   15.7930   10.9278 C.ar        1 C03       0.0845
      7 C10        14.8378   12.4698    8.6753 C.2         1 C03      -0.0105
      8 C11        13.5877   12.9240    8.2324 C.2         1 C03       0.0574
      9 N12        13.3758   14.1767    8.7294 N.pl3       1 C03      -0.2466
     10 C13        15.4150   11.2055    8.4857 C.2         1 C03       0.0368
     11 C14        12.6316   12.1277    7.4238 C.3         1 C03      -0.0027
     12 C18        12.1613   14.9568    8.5469 C.3         1 C03       0.0846
     13 O19        16.1507   16.9858   11.6047 O.3         1 C03      -0.2340
     14 C20        17.3527   17.3767   12.3001 C.3         1 C03       0.5447
     15 F21        17.1131   18.6206   12.8278 F           1 C03      -0.1402
     16 F22        18.4223   17.5054   11.4441 F           1 C03      -0.1402
     17 F23        17.6603   16.5601   13.3637 F           1 C03      -0.1402
     18 C24        12.2978   16.4238    8.2850 C.ar        1 C03      -0.0091
     19 C27        13.3585   16.8782    7.4562 C.ar        1 C03      -0.0287
     20 C28        13.6083   18.2491    7.2771 C.ar        1 C03       0.0876
     21 C29        12.7652   19.1951    7.8859 C.ar        1 C03      -0.0391
     22 C30        11.6569   18.7712    8.6339 C.ar        1 C03      -0.0631
     23 C31        11.4184   17.3945    8.8397 C.ar        1 C03       0.0319
     24 CL1        10.0386   16.9947    9.7465 Cl          1 C03      -0.0872
     25 O36        14.7470   18.6125    6.6065 O.3         1 C03      -0.3024
     26 C37        14.6006   19.3670    5.3864 C.3         1 C03       0.1302
     27 C38        15.6862   18.8713    4.4037 C.3         1 C03      -0.0222
     28 C42        14.7630   20.8099    5.6624 C.2         1 C03       0.0683
     29 O44        13.7947   21.6914    5.3254 O.co2       1 C03      -0.5660
     30 O45        15.8536   21.2683    6.3178 O.co2       1 C03      -0.5660
     31 N46        15.8112   10.6889    7.3087 N.2         1 C03      -0.1679
     32 O47        16.3067    9.4888    7.4928 O.3         1 C03      -0.1876
     33 C48        16.2374    9.1818    8.8049 C.ar        1 C03       0.1433
     34 C49        15.6695   10.2632    9.4700 C.ar        1 C03       0.0134
     35 C50        16.6262    8.0281    9.5049 C.ar        1 C03       0.0032
     36 C51        16.3962    7.9678   10.9009 C.ar        1 C03       0.0851
     37 C52        15.8250    9.0764   11.5715 C.ar        1 C03      -0.0395
     38 C53        15.4473   10.2338   10.8584 C.ar        1 C03      -0.0670
     39 O57        16.7933    6.8480   11.5930 O.3         1 C03      -0.3234
     40 C58        15.7075    6.0099   12.0192 C.3         1 C03       0.0592
     41 H1         17.8070   14.7485   11.3121 H           1 C03       0.0459
     42 H2         17.2920   12.7911   10.0815 H           1 C03       0.0504
     43 H3         14.0655   16.4217   10.3096 H           1 C03       0.0444
     44 H4         12.9996   11.1250    7.2163 H           1 C03       0.0449
     45 H5         12.4539   12.6259    6.4731 H           1 C03       0.0449
     46 H6         11.6882   12.0340    7.9600 H           1 C03       0.0449
     47 H7         11.5634   14.7785    9.4440 H           1 C03       0.0764
     48 H8         11.5855   14.5753    7.7018 H           1 C03       0.0764
     49 H9         13.9952   16.2042    7.0310 H           1 C03       0.0480
     50 H10        12.9539   20.1923    7.7848 H           1 C03       0.0487
     51 H11        11.0339   19.4742    9.0366 H           1 C03       0.0578
     52 H12        13.6274   19.1909    4.9115 H           1 C03       0.0818
     53 H13        15.6311   19.4193    3.4605 H           1 C03       0.0276
     54 H14        15.5350   17.8094    4.1959 H           1 C03       0.0276
     55 H15        16.6850   18.9995    4.8304 H           1 C03       0.0276
     56 H16        17.0665    7.2522    9.0102 H           1 C03       0.0476
     57 H17        15.6711    9.0376   12.5808 H           1 C03       0.0490
     58 H18        15.0254   11.0225   11.3426 H           1 C03       0.0582
     59 H19        16.1306    5.1122   12.4667 H           1 C03       0.0578
     60 H20        15.0764    5.7086   11.1805 H           1 C03       0.0578
     61 H21        15.0956    6.5065   12.7734 H           1 C03       0.0578
@<TRIPOS>BOND
     1     1     2  ar
     2     1     6  ar
     3     2     3  ar
     4     3     4  ar
     5     3     7   1
     6     4     5  ar
     7     4     9   1
     8     5     6  ar
     9     6    13   1
    10     7     8   2
    11     7    10   1
    12     8     9   1
    13     8    11   1
    14     9    12   1
    15    10    31   2
    16    10    34   1
    17    12    18   1
    18    13    14   1
    19    14    15   1
    20    14    16   1
    21    14    17   1
    22    18    19  ar
    23    18    23  ar
    24    19    20  ar
    25    20    21  ar
    26    20    25   1
    27    21    22  ar
    28    22    23  ar
    29    23    24   1
    30    25    26   1
    31    26    27   1
    32    26    28   1
    33    28    29  ar
    34    28    30  ar
    35    31    32   1
    36    32    33   1
    37    33    34  ar
    38    33    35  ar
    39    34    38  ar
    40    35    36  ar
    41    36    37  ar
    42    36    39   1
    43    37    38  ar
    44    39    40   1
    45     1    41   1
    46     2    42   1
    47     5    43   1
    48    11    44   1
    49    11    45   1
    50    11    46   1
    51    12    47   1
    52    12    48   1
    53    19    49   1
    54    21    50   1
    55    22    51   1
    56    26    52   1
    57    27    53   1
    58    27    54   1
    59    27    55   1
    60    35    56   1
    61    37    57   1
    62    38    58   1
    63    40    59   1
    64    40    60   1
    65    40    61   1
@<TRIPOS>SUBSTRUCTURE
     1  C03      1

