@<TRIPOS>MOLECULE
2p4y_ligand_061
    61    65
SMALL
GAST_HUCK
****
This file was generated by PARSER (from files_GN.cpp)

@<TRIPOS>ATOM
      1 C1         11.0561    8.1307    9.5660 C.ar        1 C03      -0.0494
      2 C2          9.7413    7.7937    9.9499 C.ar        1 C03      -0.0824
      3 C3          9.5517    6.9394   11.0502 C.ar        1 C03      -0.0320
      4 C4         10.6357    6.4570   11.7908 C.ar        1 C03       0.0592
      5 C5         11.9500    6.8026   11.4111 C.ar        1 C03      -0.0175
      6 C6         12.1629    7.6427   10.2993 C.ar        1 C03       0.0845
      7 C10         8.3845    6.4877   11.6504 C.2         1 C03      -0.0105
      8 C11         8.7903    5.7176   12.7541 C.2         1 C03       0.0574
      9 N12        10.1574    5.7012   12.8174 N.pl3       1 C03      -0.2466
     10 C13         7.0661    6.8485   11.2850 C.2         1 C03       0.0368
     11 C14         7.8757    5.0464   13.7090 C.3         1 C03      -0.0027
     12 C18        10.9474    5.1740   13.9120 C.3         1 C03       0.0846
     13 O19        13.4426    7.8120    9.8194 O.3         1 C03      -0.2340
     14 C20        13.9846    9.1607    9.8818 C.3         1 C03       0.5447
     15 F21        15.1995    9.1123    9.2451 F           1 C03      -0.1402
     16 F22        14.2047    9.5587   11.1845 F           1 C03      -0.1402
     17 F23        13.2035   10.0919    9.2289 F           1 C03      -0.1402
     18 C24        12.2967    4.5897   13.6473 C.ar        1 C03      -0.0091
     19 C27        12.5976    3.9901   12.4002 C.ar        1 C03      -0.0287
     20 C28        13.9217    3.6672   12.0408 C.ar        1 C03       0.0876
     21 C29        14.9345    3.7566   13.0167 C.ar        1 C03      -0.0391
     22 C30        14.6378    4.2123   14.3085 C.ar        1 C03      -0.0631
     23 C31        13.3343    4.6563   14.6210 C.ar        1 C03       0.0319
     24 CL1        13.0987    5.2542   16.1853 Cl          1 C03      -0.0872
     25 O36        14.2220    3.2296   10.7779 O.3         1 C03      -0.3024
     26 C37        14.9919    4.0946    9.9016 C.3         1 C03       0.1302
     27 C38        16.4200    4.4179   10.4358 C.3         1 C03      -0.0222
     28 C42        14.2628    5.3068    9.4853 C.2         1 C03       0.0683
     29 O44        14.9481    6.3142    8.9039 O.co2       1 C03      -0.5660
     30 O45        12.9587    5.2163    9.1286 O.co2       1 C03      -0.5660
     31 N46         6.2310    7.5608   12.0687 N.2         1 C03      -0.1679
     32 O47         5.0689    7.7224   11.4856 O.3         1 C03      -0.1876
     33 C48         5.1067    7.1169   10.2768 C.ar        1 C03       0.1433
     34 C49         6.3712    6.5614   10.1120 C.ar        1 C03       0.0134
     35 C50         4.1129    6.9786    9.2941 C.ar        1 C03       0.0032
     36 C51         4.4154    6.2766    8.1079 C.ar        1 C03       0.0851
     37 C52         5.6982    5.7021    7.9428 C.ar        1 C03      -0.0395
     38 C53         6.6857    5.8434    8.9420 C.ar        1 C03      -0.0670
     39 O57         3.4749    6.0907    7.1231 O.3         1 C03      -0.3234
     40 C58         3.0704    7.3114    6.4788 C.3         1 C03       0.0592
     41 H1         11.2075    8.7364    8.7605 H           1 C03       0.0459
     42 H2          8.9421    8.1880    9.4504 H           1 C03       0.0504
     43 H3         12.7625    6.4316   11.8975 H           1 C03       0.0444
     44 H4          6.8238    5.2101   13.4641 H           1 C03       0.0449
     45 H5          8.0523    5.4326   14.7139 H           1 C03       0.0449
     46 H6          8.0598    3.9701   13.6989 H           1 C03       0.0449
     47 H7         10.3990    4.3986   14.4622 H           1 C03       0.0764
     48 H8         11.0666    6.0216   14.5965 H           1 C03       0.0764
     49 H9         11.8641    3.8595   11.7069 H           1 C03       0.0480
     50 H10        15.8974    3.4976   12.7940 H           1 C03       0.0487
     51 H11        15.3769    4.2380   15.0145 H           1 C03       0.0578
     52 H12        15.1262    3.5181    8.9827 H           1 C03       0.0818
     53 H13        17.0255    4.8724    9.6475 H           1 C03       0.0276
     54 H14        16.9179    3.5030   10.7547 H           1 C03       0.0276
     55 H15        16.3751    5.1141   11.2739 H           1 C03       0.0276
     56 H16         3.1846    7.3791    9.4435 H           1 C03       0.0476
     57 H17         5.9128    5.1716    7.1003 H           1 C03       0.0490
     58 H18         7.6053    5.4212    8.8272 H           1 C03       0.0582
     59 H19         2.3881    7.0633    5.6662 H           1 C03       0.0578
     60 H20         3.9233    7.8475    6.0535 H           1 C03       0.0578
     61 H21         2.5401    7.9630    7.1765 H           1 C03       0.0578
@<TRIPOS>BOND
     1     1     2  ar
     2     1     6  ar
     3     2     3  ar
     4     3     4  ar
     5     3     7   1
     6     4     5  ar
     7     4     9   1
     8     5     6  ar
     9     6    13   1
    10     7     8   2
    11     7    10   1
    12     8     9   1
    13     8    11   1
    14     9    12   1
    15    10    31   2
    16    10    34   1
    17    12    18   1
    18    13    14   1
    19    14    15   1
    20    14    16   1
    21    14    17   1
    22    18    19  ar
    23    18    23  ar
    24    19    20  ar
    25    20    21  ar
    26    20    25   1
    27    21    22  ar
    28    22    23  ar
    29    23    24   1
    30    25    26   1
    31    26    27   1
    32    26    28   1
    33    28    29  ar
    34    28    30  ar
    35    31    32   1
    36    32    33   1
    37    33    34  ar
    38    33    35  ar
    39    34    38  ar
    40    35    36  ar
    41    36    37  ar
    42    36    39   1
    43    37    38  ar
    44    39    40   1
    45     1    41   1
    46     2    42   1
    47     5    43   1
    48    11    44   1
    49    11    45   1
    50    11    46   1
    51    12    47   1
    52    12    48   1
    53    19    49   1
    54    21    50   1
    55    22    51   1
    56    26    52   1
    57    27    53   1
    58    27    54   1
    59    27    55   1
    60    35    56   1
    61    37    57   1
    62    38    58   1
    63    40    59   1
    64    40    60   1
    65    40    61   1
@<TRIPOS>SUBSTRUCTURE
     1  C03      1

