@<TRIPOS>MOLECULE
2p4y_ligand_060
    61    65
SMALL
GAST_HUCK
****
This file was generated by PARSER (from files_GN.cpp)

@<TRIPOS>ATOM
      1 C1          4.2276    9.8913   13.5987 C.ar        1 C03      -0.0494
      2 C2          5.0961    9.1558   12.7733 C.ar        1 C03      -0.0824
      3 C3          4.5762    8.5265   11.6250 C.ar        1 C03      -0.0320
      4 C4          3.2279    8.6447   11.2760 C.ar        1 C03       0.0592
      5 C5          2.3529    9.3595   12.1233 C.ar        1 C03      -0.0175
      6 C6          2.8563   10.0015   13.2793 C.ar        1 C03       0.0845
      7 C10         5.1912    7.7335   10.6649 C.2         1 C03      -0.0105
      8 C11         4.1970    7.4077    9.7322 C.2         1 C03       0.0574
      9 N12         3.0089    7.9660   10.1197 N.pl3       1 C03      -0.2466
     10 C13         6.5557    7.3729   10.6388 C.2         1 C03       0.0368
     11 C14         4.3941    6.5399    8.5501 C.3         1 C03      -0.0027
     12 C18         1.7192    7.7710    9.4866 C.3         1 C03       0.0846
     13 O19         2.0261   10.6795   14.1312 O.3         1 C03      -0.2340
     14 C20         1.6801   12.0192   13.7254 C.3         1 C03       0.5447
     15 F21         0.9694   12.5858   14.7505 F           1 C03      -0.1402
     16 F22         0.8698   12.0260   12.6163 F           1 C03      -0.1402
     17 F23         2.7792   12.8139   13.4947 F           1 C03      -0.1402
     18 C24         1.6425    8.1254    8.0387 C.ar        1 C03      -0.0091
     19 C27         1.8909    9.4699    7.6643 C.ar        1 C03      -0.0287
     20 C28         1.8556    9.8739    6.3154 C.ar        1 C03       0.0876
     21 C29         1.5316    8.9376    5.3219 C.ar        1 C03      -0.0391
     22 C30         1.2495    7.6083    5.6685 C.ar        1 C03      -0.0631
     23 C31         1.2927    7.1926    7.0137 C.ar        1 C03       0.0319
     24 CL1         0.8724    5.5741    7.3041 Cl          1 C03      -0.0872
     25 O36         2.1016   11.1804    5.9865 O.3         1 C03      -0.3024
     26 C37         3.3946   11.4565    5.4053 C.3         1 C03       0.1302
     27 C38         4.0509   12.6032    6.2058 C.3         1 C03      -0.0222
     28 C42         3.2169   11.8106    3.9796 C.2         1 C03       0.0683
     29 O44         3.2480   10.8511    3.0316 O.co2       1 C03      -0.5660
     30 O45         2.8988   13.0703    3.5912 O.co2       1 C03      -0.5660
     31 N46         7.3876    7.6137    9.6044 N.2         1 C03      -0.1679
     32 O47         8.5929    7.1650    9.8567 O.3         1 C03      -0.1876
     33 C48         8.5839    6.5940   11.0822 C.ar        1 C03       0.1433
     34 C49         7.3014    6.7086   11.6098 C.ar        1 C03       0.0134
     35 C50         9.6141    5.9518   11.7859 C.ar        1 C03       0.0032
     36 C51         9.3235    5.3779   13.0459 C.ar        1 C03       0.0851
     37 C52         8.0220    5.5044   13.5889 C.ar        1 C03      -0.0395
     38 C53         7.0014    6.1692   12.8757 C.ar        1 C03      -0.0670
     39 O57        10.2966    4.7537   13.7773 O.3         1 C03      -0.3234
     40 C58        10.6816    3.4643   13.2673 C.3         1 C03       0.0592
     41 H1          4.5901   10.3436   14.4390 H           1 C03       0.0459
     42 H2          6.0890    9.0897   13.0063 H           1 C03       0.0504
     43 H3          1.3540    9.4203   11.9187 H           1 C03       0.0444
     44 H4          5.4034    6.1226    8.4966 H           1 C03       0.0449
     45 H5          4.2203    7.1236    7.6442 H           1 C03       0.0449
     46 H6          3.6908    5.7042    8.5864 H           1 C03       0.0449
     47 H7          0.9310    8.3464    9.9759 H           1 C03       0.0764
     48 H8          1.4575    6.7257    9.6483 H           1 C03       0.0764
     49 H9          2.1121   10.1687    8.3814 H           1 C03       0.0480
     50 H10         1.4885    9.2135    4.3387 H           1 C03       0.0487
     51 H11         0.9908    6.9462    4.9305 H           1 C03       0.0578
     52 H12         4.0840   10.6052    5.4543 H           1 C03       0.0818
     53 H13         5.0003   12.8817    5.7464 H           1 C03       0.0276
     54 H14         4.2466   12.2907    7.2359 H           1 C03       0.0276
     55 H15         3.3931   13.4729    6.2286 H           1 C03       0.0276
     56 H16        10.5479    5.8846   11.3739 H           1 C03       0.0476
     57 H17         7.8132    5.1024   14.5031 H           1 C03       0.0490
     58 H18         6.0600    6.2501   13.2669 H           1 C03       0.0582
     59 H19        11.3733    3.0058   13.9760 H           1 C03       0.0578
     60 H20        11.1945    3.5591   12.3081 H           1 C03       0.0578
     61 H21         9.8211    2.7992   13.1557 H           1 C03       0.0578
@<TRIPOS>BOND
     1     1     2  ar
     2     1     6  ar
     3     2     3  ar
     4     3     4  ar
     5     3     7   1
     6     4     5  ar
     7     4     9   1
     8     5     6  ar
     9     6    13   1
    10     7     8   2
    11     7    10   1
    12     8     9   1
    13     8    11   1
    14     9    12   1
    15    10    31   2
    16    10    34   1
    17    12    18   1
    18    13    14   1
    19    14    15   1
    20    14    16   1
    21    14    17   1
    22    18    19  ar
    23    18    23  ar
    24    19    20  ar
    25    20    21  ar
    26    20    25   1
    27    21    22  ar
    28    22    23  ar
    29    23    24   1
    30    25    26   1
    31    26    27   1
    32    26    28   1
    33    28    29  ar
    34    28    30  ar
    35    31    32   1
    36    32    33   1
    37    33    34  ar
    38    33    35  ar
    39    34    38  ar
    40    35    36  ar
    41    36    37  ar
    42    36    39   1
    43    37    38  ar
    44    39    40   1
    45     1    41   1
    46     2    42   1
    47     5    43   1
    48    11    44   1
    49    11    45   1
    50    11    46   1
    51    12    47   1
    52    12    48   1
    53    19    49   1
    54    21    50   1
    55    22    51   1
    56    26    52   1
    57    27    53   1
    58    27    54   1
    59    27    55   1
    60    35    56   1
    61    37    57   1
    62    38    58   1
    63    40    59   1
    64    40    60   1
    65    40    61   1
@<TRIPOS>SUBSTRUCTURE
     1  C03      1

