@<TRIPOS>MOLECULE
2p4y_ligand_045
    61    65
SMALL
GAST_HUCK
****
This file was generated by PARSER (from files_GN.cpp)

@<TRIPOS>ATOM
      1 C1          9.6491    7.2183   10.3516 C.ar        1 C03      -0.0494
      2 C2         11.0301    7.1899   10.0793 C.ar        1 C03      -0.0824
      3 C3         11.8352    6.2256   10.7220 C.ar        1 C03      -0.0320
      4 C4         11.2883    5.3248   11.6361 C.ar        1 C03       0.0592
      5 C5          9.9185    5.4039   11.9675 C.ar        1 C03      -0.0175
      6 C6          9.0833    6.3290   11.2951 C.ar        1 C03       0.0845
      7 C10        13.2010    5.9677   10.6394 C.2         1 C03      -0.0105
      8 C11        13.4291    4.8386   11.4493 C.2         1 C03       0.0574
      9 N12        12.2665    4.4953   12.0790 N.pl3       1 C03      -0.2466
     10 C13        14.1382    6.8630   10.0640 C.2         1 C03       0.0368
     11 C14        14.7457    4.1826   11.6666 C.3         1 C03      -0.0027
     12 C18        12.0761    3.4691   13.0802 C.3         1 C03       0.0846
     13 O19         7.7435    6.4081   11.5865 O.3         1 C03      -0.2340
     14 C20         6.9331    5.4131   10.9287 C.3         1 C03       0.5447
     15 F21         5.6335    5.6566   11.2822 F           1 C03      -0.1402
     16 F22         7.2332    4.1340   11.3399 F           1 C03      -0.1402
     17 F23         7.0065    5.4802    9.5542 F           1 C03      -0.1402
     18 C24        12.4663    3.8261   14.4850 C.ar        1 C03      -0.0091
     19 C27        13.5080    4.7595   14.7152 C.ar        1 C03      -0.0287
     20 C28        14.1275    4.8929   15.9712 C.ar        1 C03       0.0876
     21 C29        13.5705    4.2223   17.0784 C.ar        1 C03      -0.0391
     22 C30        12.4890    3.3456   16.8992 C.ar        1 C03      -0.0631
     23 C31        11.9640    3.1092   15.6097 C.ar        1 C03       0.0319
     24 CL1        10.7717    1.9000   15.4871 Cl          1 C03      -0.0872
     25 O36        15.3040    5.5860   16.1340 O.3         1 C03      -0.3024
     26 C37        16.4095    5.1635   15.2807 C.3         1 C03       0.1302
     27 C38        17.7232    5.1434   16.0992 C.3         1 C03      -0.0222
     28 C42        16.5404    6.0557   14.1113 C.2         1 C03       0.0683
     29 O44        15.6289    7.0221   13.8483 O.co2       1 C03      -0.5660
     30 O45        17.5385    5.8748   13.2222 O.co2       1 C03      -0.5660
     31 N46        13.9224    8.1976   10.0544 N.2         1 C03      -0.1679
     32 O47        14.9695    8.8425    9.6146 O.3         1 C03      -0.1876
     33 C48        15.9272    7.9365    9.3230 C.ar        1 C03       0.1433
     34 C49        15.4253    6.6636    9.5740 C.ar        1 C03       0.0134
     35 C50        17.2300    8.1447    8.8518 C.ar        1 C03       0.0032
     36 C51        18.0536    7.0215    8.6314 C.ar        1 C03       0.0851
     37 C52        17.5418    5.7200    8.8526 C.ar        1 C03      -0.0395
     38 C53        16.2236    5.5312    9.3119 C.ar        1 C03      -0.0670
     39 O57        19.3107    7.2100    8.1246 O.3         1 C03      -0.3234
     40 C58        20.3315    7.2775    9.1371 C.3         1 C03       0.0592
     41 H1          9.0489    7.8906    9.8645 H           1 C03       0.0459
     42 H2         11.4299    7.8402    9.3916 H           1 C03       0.0504
     43 H3          9.5076    4.7855   12.6716 H           1 C03       0.0444
     44 H4         15.5441    4.9318   11.6896 H           1 C03       0.0449
     45 H5         14.9224    3.4670   10.8584 H           1 C03       0.0449
     46 H6         14.7865    3.6326   12.6078 H           1 C03       0.0449
     47 H7         12.6428    2.5809   12.7931 H           1 C03       0.0764
     48 H8         11.0349    3.1547   13.0522 H           1 C03       0.0764
     49 H9         13.8992    5.2957   13.9453 H           1 C03       0.0480
     50 H10        13.9863    4.3408   18.0033 H           1 C03       0.0487
     51 H11        12.1274    2.8330   17.7107 H           1 C03       0.0578
     52 H12        16.2750    4.1425   14.9056 H           1 C03       0.0818
     53 H13        18.5279    4.6904   15.5140 H           1 C03       0.0276
     54 H14        17.5924    4.5507   17.0072 H           1 C03       0.0276
     55 H15        18.0334    6.1503   16.3797 H           1 C03       0.0276
     56 H16        17.5660    9.0941    8.6614 H           1 C03       0.0476
     57 H17        18.1243    4.9065    8.6521 H           1 C03       0.0490
     58 H18        15.8461    4.5902    9.4175 H           1 C03       0.0582
     59 H19        21.2735    7.5392    8.6594 H           1 C03       0.0578
     60 H20        20.4572    6.3101    9.6317 H           1 C03       0.0578
     61 H21        20.1023    8.0467    9.8784 H           1 C03       0.0578
@<TRIPOS>BOND
     1     1     2  ar
     2     1     6  ar
     3     2     3  ar
     4     3     4  ar
     5     3     7   1
     6     4     5  ar
     7     4     9   1
     8     5     6  ar
     9     6    13   1
    10     7     8   2
    11     7    10   1
    12     8     9   1
    13     8    11   1
    14     9    12   1
    15    10    31   2
    16    10    34   1
    17    12    18   1
    18    13    14   1
    19    14    15   1
    20    14    16   1
    21    14    17   1
    22    18    19  ar
    23    18    23  ar
    24    19    20  ar
    25    20    21  ar
    26    20    25   1
    27    21    22  ar
    28    22    23  ar
    29    23    24   1
    30    25    26   1
    31    26    27   1
    32    26    28   1
    33    28    29  ar
    34    28    30  ar
    35    31    32   1
    36    32    33   1
    37    33    34  ar
    38    33    35  ar
    39    34    38  ar
    40    35    36  ar
    41    36    37  ar
    42    36    39   1
    43    37    38  ar
    44    39    40   1
    45     1    41   1
    46     2    42   1
    47     5    43   1
    48    11    44   1
    49    11    45   1
    50    11    46   1
    51    12    47   1
    52    12    48   1
    53    19    49   1
    54    21    50   1
    55    22    51   1
    56    26    52   1
    57    27    53   1
    58    27    54   1
    59    27    55   1
    60    35    56   1
    61    37    57   1
    62    38    58   1
    63    40    59   1
    64    40    60   1
    65    40    61   1
@<TRIPOS>SUBSTRUCTURE
     1  C03      1

