@<TRIPOS>MOLECULE
2p4y_ligand_011
    61    65
SMALL
GAST_HUCK
****
This file was generated by PARSER (from files_GN.cpp)

@<TRIPOS>ATOM
      1 C1         12.7064   15.1362   12.2651 C.ar        1 C03      -0.0494
      2 C2         12.2476   14.3645   11.1792 C.ar        1 C03      -0.0824
      3 C3         13.1727   13.9686   10.1964 C.ar        1 C03      -0.0320
      4 C4         14.5301   14.2907   10.2944 C.ar        1 C03       0.0592
      5 C5         14.9871   15.0520   11.3957 C.ar        1 C03      -0.0175
      6 C6         14.0677   15.4931   12.3740 C.ar        1 C03       0.0845
      7 C10        12.9962   13.2352    9.0322 C.2         1 C03      -0.0105
      8 C11        14.2610   13.1217    8.4396 C.2         1 C03       0.0574
      9 N12        15.1754   13.7631    9.2237 N.pl3       1 C03      -0.2466
     10 C13        11.7757   12.6974    8.5889 C.2         1 C03       0.0368
     11 C14        14.5449   12.4127    7.1686 C.3         1 C03      -0.0027
     12 C18        16.5940   13.8652    8.9472 C.3         1 C03       0.0846
     13 O19        14.5293   16.2067   13.4501 O.3         1 C03      -0.2340
     14 C20        14.2220   17.6150   13.4649 C.3         1 C03       0.5447
     15 F21        14.9033   18.1707   14.5157 F           1 C03      -0.1402
     16 F22        12.8865   17.8508   13.6812 F           1 C03      -0.1402
     17 F23        14.6194   18.2649   12.3194 F           1 C03      -0.1402
     18 C24        17.3842   12.5975    9.0434 C.ar        1 C03      -0.0091
     19 C27        17.0078   11.5912    9.9688 C.ar        1 C03      -0.0287
     20 C28        17.7721   10.4172   10.1387 C.ar        1 C03       0.0876
     21 C29        18.9820   10.2795    9.4390 C.ar        1 C03      -0.0391
     22 C30        19.3804   11.2618    8.5170 C.ar        1 C03      -0.0631
     23 C31        18.5931   12.4097    8.3072 C.ar        1 C03       0.0319
     24 CL1        19.1929   13.5363    7.1918 Cl          1 C03      -0.0872
     25 O36        17.4169    9.4652   11.0555 O.3         1 C03      -0.3024
     26 C37        16.3375    8.5657   10.7044 C.3         1 C03       0.1302
     27 C38        15.8225    8.0011   12.0491 C.3         1 C03      -0.0222
     28 C42        16.7358    7.4695    9.7867 C.2         1 C03       0.0683
     29 O44        15.8394    6.4856    9.5405 O.co2       1 C03      -0.5660
     30 O45        17.6026    7.7127    8.7815 O.co2       1 C03      -0.5660
     31 N46        11.2094   11.5793    9.0798 N.2         1 C03      -0.1679
     32 O47        10.0672   11.3451    8.4834 O.3         1 C03      -0.1876
     33 C48         9.8516   12.3139    7.5671 C.ar        1 C03       0.1433
     34 C49        10.9141   13.2102    7.6242 C.ar        1 C03       0.0134
     35 C50         8.7837   12.5068    6.6725 C.ar        1 C03       0.0032
     36 C51         8.7720   13.6718    5.8648 C.ar        1 C03       0.0851
     37 C52         9.8552   14.5819    5.9347 C.ar        1 C03      -0.0395
     38 C53        10.9380   14.3519    6.8143 C.ar        1 C03      -0.0670
     39 O57         7.7849   13.9356    4.9469 O.3         1 C03      -0.3234
     40 C58         6.4378   13.9843    5.4471 C.3         1 C03       0.0592
     41 H1         12.0372   15.4408   12.9720 H           1 C03       0.0459
     42 H2         11.2608   14.1120   11.1084 H           1 C03       0.0504
     43 H3         15.9730   15.2903   11.4997 H           1 C03       0.0444
     44 H4         13.6409   11.9944    6.7231 H           1 C03       0.0449
     45 H5         15.2406   11.5920    7.3490 H           1 C03       0.0449
     46 H6         14.9898   13.1026    6.4482 H           1 C03       0.0449
     47 H7         17.0760   14.5789    9.6176 H           1 C03       0.0764
     48 H8         16.6730   14.2896    7.9456 H           1 C03       0.0764
     49 H9         16.1703   11.7052   10.5468 H           1 C03       0.0480
     50 H10        19.5832    9.4688    9.6036 H           1 C03       0.0487
     51 H11        20.2601   11.1331    8.0084 H           1 C03       0.0578
     52 H12        15.5094    9.1132   10.2396 H           1 C03       0.0818
     53 H13        14.9192    7.4067   11.9013 H           1 C03       0.0276
     54 H14        15.5824    8.8171   12.7309 H           1 C03       0.0276
     55 H15        16.5812    7.3743   12.5203 H           1 C03       0.0276
     56 H16         8.0328   11.8194    6.6268 H           1 C03       0.0476
     57 H17         9.8613   15.4182    5.3450 H           1 C03       0.0490
     58 H18        11.7161   15.0134    6.8659 H           1 C03       0.0582
     59 H19         5.7867   14.2961    4.6296 H           1 C03       0.0578
     60 H20         6.3426   14.7104    6.2592 H           1 C03       0.0578
     61 H21         6.1045   13.0037    5.7924 H           1 C03       0.0578
@<TRIPOS>BOND
     1     1     2  ar
     2     1     6  ar
     3     2     3  ar
     4     3     4  ar
     5     3     7   1
     6     4     5  ar
     7     4     9   1
     8     5     6  ar
     9     6    13   1
    10     7     8   2
    11     7    10   1
    12     8     9   1
    13     8    11   1
    14     9    12   1
    15    10    31   2
    16    10    34   1
    17    12    18   1
    18    13    14   1
    19    14    15   1
    20    14    16   1
    21    14    17   1
    22    18    19  ar
    23    18    23  ar
    24    19    20  ar
    25    20    21  ar
    26    20    25   1
    27    21    22  ar
    28    22    23  ar
    29    23    24   1
    30    25    26   1
    31    26    27   1
    32    26    28   1
    33    28    29  ar
    34    28    30  ar
    35    31    32   1
    36    32    33   1
    37    33    34  ar
    38    33    35  ar
    39    34    38  ar
    40    35    36  ar
    41    36    37  ar
    42    36    39   1
    43    37    38  ar
    44    39    40   1
    45     1    41   1
    46     2    42   1
    47     5    43   1
    48    11    44   1
    49    11    45   1
    50    11    46   1
    51    12    47   1
    52    12    48   1
    53    19    49   1
    54    21    50   1
    55    22    51   1
    56    26    52   1
    57    27    53   1
    58    27    54   1
    59    27    55   1
    60    35    56   1
    61    37    57   1
    62    38    58   1
    63    40    59   1
    64    40    60   1
    65    40    61   1
@<TRIPOS>SUBSTRUCTURE
     1  C03      1

