@<TRIPOS>MOLECULE
2p4y_ligand_074
    61    65
SMALL
GAST_HUCK
****
This file was generated by PARSER (from files_GN.cpp)

@<TRIPOS>ATOM
      1 C1          7.4859    5.5698   12.7740 C.ar        1 C03      -0.0494
      2 C2          6.5232    6.0569   11.8665 C.ar        1 C03      -0.0824
      3 C3          5.8094    7.2304   12.1860 C.ar        1 C03      -0.0320
      4 C4          6.0074    7.8795   13.4086 C.ar        1 C03       0.0592
      5 C5          6.9613    7.3844   14.3219 C.ar        1 C03      -0.0175
      6 C6          7.7202    6.2376   13.9950 C.ar        1 C03       0.0845
      7 C10         4.8592    7.9609   11.4741 C.2         1 C03      -0.0105
      8 C11         4.5418    9.0724   12.2766 C.2         1 C03       0.0574
      9 N12         5.1946    8.9627   13.4696 N.pl3       1 C03      -0.2466
     10 C13         4.3975    7.6367   10.1728 C.2         1 C03       0.0368
     11 C14         3.7365   10.2473   11.8578 C.3         1 C03      -0.0027
     12 C18         5.0917    9.8655   14.6017 C.3         1 C03       0.0846
     13 O19         8.6644    5.7391   14.8564 O.3         1 C03      -0.2340
     14 C20         9.9137    6.4537   14.8922 C.3         1 C03       0.5447
     15 F21        10.7817    5.7247   15.6610 F           1 C03      -0.1402
     16 F22         9.7795    7.6831   15.4895 F           1 C03      -0.1402
     17 F23        10.4967    6.5981   13.6533 F           1 C03      -0.1402
     18 C24         4.0979    9.4115   15.6258 C.ar        1 C03      -0.0091
     19 C27         2.7632    9.1781   15.1994 C.ar        1 C03      -0.0287
     20 C28         1.7517    8.7746   16.1014 C.ar        1 C03       0.0876
     21 C29         2.0661    8.6442   17.4649 C.ar        1 C03      -0.0391
     22 C30         3.3782    8.8784   17.9127 C.ar        1 C03      -0.0631
     23 C31         4.3972    9.2515   17.0077 C.ar        1 C03       0.0319
     24 CL1         5.9196    9.5578   17.6874 Cl          1 C03      -0.0872
     25 O36         0.4486    8.6148   15.7155 O.3         1 C03      -0.3024
     26 C37        -0.0238    7.3171   15.2783 C.3         1 C03       0.1302
     27 C38         0.6651    6.0865   15.9174 C.3         1 C03      -0.0222
     28 C42        -0.0489    7.2234   13.8011 C.2         1 C03       0.0683
     29 O44         1.0074    7.6254   13.0579 O.co2       1 C03      -0.5660
     30 O45        -1.1068    6.6666   13.1619 O.co2       1 C03      -0.5660
     31 N46         5.1888    7.0729    9.2379 N.2         1 C03      -0.1679
     32 O47         4.5326    6.8692    8.1244 O.3         1 C03      -0.1876
     33 C48         3.2644    7.2920    8.2977 C.ar        1 C03       0.1433
     34 C49         3.1345    7.7850    9.5958 C.ar        1 C03       0.0134
     35 C50         2.1845    7.2767    7.4022 C.ar        1 C03       0.0032
     36 C51         0.9303    7.7636    7.8364 C.ar        1 C03       0.0851
     37 C52         0.7783    8.2279    9.1652 C.ar        1 C03      -0.0395
     38 C53         1.8847    8.2522   10.0495 C.ar        1 C03      -0.0670
     39 O57        -0.1386    7.7434    6.9842 O.3         1 C03      -0.3234
     40 C58        -0.3176    8.9834    6.2768 C.3         1 C03       0.0592
     41 H1          8.0201    4.7284   12.5397 H           1 C03       0.0459
     42 H2          6.3600    5.5592   10.9892 H           1 C03       0.0504
     43 H3          7.1237    7.8559   15.2109 H           1 C03       0.0444
     44 H4          3.4103   10.1777   10.8202 H           1 C03       0.0449
     45 H5          4.3500   11.1480   11.9494 H           1 C03       0.0449
     46 H6          2.8591   10.3338   12.5055 H           1 C03       0.0449
     47 H7          4.7755   10.8610   14.2857 H           1 C03       0.0764
     48 H8          6.0909   10.0061   15.0144 H           1 C03       0.0764
     49 H9          2.5039    9.3324   14.2149 H           1 C03       0.0480
     50 H10         1.3382    8.3893   18.1400 H           1 C03       0.0487
     51 H11         3.5808    8.7767   18.9109 H           1 C03       0.0578
     52 H12        -1.0630    7.2864   15.6153 H           1 C03       0.0818
     53 H13         0.1636    5.1574   15.6109 H           1 C03       0.0276
     54 H14         0.6258    6.1482   17.0029 H           1 C03       0.0276
     55 H15         1.7116    6.0191   15.6108 H           1 C03       0.0276
     56 H16         2.3066    6.9053    6.4594 H           1 C03       0.0476
     57 H17        -0.1338    8.5485    9.4928 H           1 C03       0.0490
     58 H18         1.7656    8.5974   11.0042 H           1 C03       0.0582
     59 H19        -1.1784    8.8726    5.6181 H           1 C03       0.0578
     60 H20         0.5550    9.2235    5.6630 H           1 C03       0.0578
     61 H21        -0.5184    9.8080    6.9664 H           1 C03       0.0578
@<TRIPOS>BOND
     1     1     2  ar
     2     1     6  ar
     3     2     3  ar
     4     3     4  ar
     5     3     7   1
     6     4     5  ar
     7     4     9   1
     8     5     6  ar
     9     6    13   1
    10     7     8   2
    11     7    10   1
    12     8     9   1
    13     8    11   1
    14     9    12   1
    15    10    31   2
    16    10    34   1
    17    12    18   1
    18    13    14   1
    19    14    15   1
    20    14    16   1
    21    14    17   1
    22    18    19  ar
    23    18    23  ar
    24    19    20  ar
    25    20    21  ar
    26    20    25   1
    27    21    22  ar
    28    22    23  ar
    29    23    24   1
    30    25    26   1
    31    26    27   1
    32    26    28   1
    33    28    29  ar
    34    28    30  ar
    35    31    32   1
    36    32    33   1
    37    33    34  ar
    38    33    35  ar
    39    34    38  ar
    40    35    36  ar
    41    36    37  ar
    42    36    39   1
    43    37    38  ar
    44    39    40   1
    45     1    41   1
    46     2    42   1
    47     5    43   1
    48    11    44   1
    49    11    45   1
    50    11    46   1
    51    12    47   1
    52    12    48   1
    53    19    49   1
    54    21    50   1
    55    22    51   1
    56    26    52   1
    57    27    53   1
    58    27    54   1
    59    27    55   1
    60    35    56   1
    61    37    57   1
    62    38    58   1
    63    40    59   1
    64    40    60   1
    65    40    61   1
@<TRIPOS>SUBSTRUCTURE
     1  C03      1

