@<TRIPOS>MOLECULE
2p4y_ligand_019
    61    65
SMALL
GAST_HUCK
****
This file was generated by PARSER (from files_GN.cpp)

@<TRIPOS>ATOM
      1 C1         13.7941   14.1043   11.6538 C.ar        1 C03      -0.0494
      2 C2         13.9839   12.7867   11.1881 C.ar        1 C03      -0.0824
      3 C3         15.2160   12.4480   10.5997 C.ar        1 C03      -0.0320
      4 C4         16.2527   13.3763   10.4850 C.ar        1 C03       0.0592
      5 C5         16.0617   14.6893   10.9705 C.ar        1 C03      -0.0175
      6 C6         14.8351   15.0565   11.5666 C.ar        1 C03       0.0845
      7 C10        15.6578   11.2581   10.0390 C.2         1 C03      -0.0105
      8 C11        16.9624   11.4881    9.5871 C.2         1 C03       0.0574
      9 N12        17.2882   12.7904    9.8334 N.pl3       1 C03      -0.2466
     10 C13        14.8886   10.0884    9.9366 C.2         1 C03       0.0368
     11 C14        17.8316   10.4853    8.9274 C.3         1 C03      -0.0027
     12 C18        18.5216   13.4393    9.4466 C.3         1 C03       0.0846
     13 O19        14.6511   16.3698   11.9322 O.3         1 C03      -0.2340
     14 C20        14.0916   16.6578   13.2293 C.3         1 C03       0.5447
     15 F21        14.2720   17.9965   13.4657 F           1 C03      -0.1402
     16 F22        14.7045   15.9715   14.2505 F           1 C03      -0.1402
     17 F23        12.7409   16.4170   13.2585 F           1 C03      -0.1402
     18 C24        18.7652   13.5556    7.9703 C.ar        1 C03      -0.0091
     19 C27        20.0876   13.3542    7.4924 C.ar        1 C03      -0.0287
     20 C28        20.4152   13.5095    6.1305 C.ar        1 C03       0.0876
     21 C29        19.3985   13.8023    5.2079 C.ar        1 C03      -0.0391
     22 C30        18.0875   14.0237    5.6511 C.ar        1 C03      -0.0631
     23 C31        17.7686   13.9365    7.0225 C.ar        1 C03       0.0319
     24 CL1        16.1640   14.3294    7.4132 Cl          1 C03      -0.0872
     25 O36        21.6985   13.3879    5.6696 O.3         1 C03      -0.3024
     26 C37        22.5763   14.5452    5.7225 C.3         1 C03       0.1302
     27 C38        23.4999   14.4748    6.9642 C.3         1 C03      -0.0222
     28 C42        21.9364   15.8762    5.5755 C.2         1 C03       0.0683
     29 O44        21.4765   16.5316    6.6671 O.co2       1 C03      -0.5660
     30 O45        21.3743   16.2033    4.3902 O.co2       1 C03      -0.5660
     31 N46        13.8370    9.9213    9.1131 N.2         1 C03      -0.1679
     32 O47        13.2969    8.7400    9.2943 O.3         1 C03      -0.1876
     33 C48        13.9727    8.1027   10.2755 C.ar        1 C03       0.1433
     34 C49        14.9987    8.9380   10.7030 C.ar        1 C03       0.0134
     35 C50        13.7727    6.8434   10.8648 C.ar        1 C03       0.0032
     36 C51        14.6189    6.4460   11.9254 C.ar        1 C03       0.0851
     37 C52        15.6751    7.2918   12.3435 C.ar        1 C03      -0.0395
     38 C53        15.8690    8.5496   11.7353 C.ar        1 C03      -0.0670
     39 O57        14.4361    5.2258   12.5185 O.3         1 C03      -0.3234
     40 C58        13.7588    5.3049   13.7852 C.3         1 C03       0.0592
     41 H1         12.8866   14.3708   12.0466 H           1 C03       0.0459
     42 H2         13.2359   12.0930   11.2581 H           1 C03       0.0504
     43 H3         16.7930   15.3909   10.8748 H           1 C03       0.0444
     44 H4         17.3479    9.5092    8.8548 H           1 C03       0.0449
     45 H5         18.7537   10.3686    9.5028 H           1 C03       0.0449
     46 H6         18.0780   10.8166    7.9169 H           1 C03       0.0449
     47 H7         19.3324   12.8909    9.9382 H           1 C03       0.0764
     48 H8         18.5832   14.4521    9.8437 H           1 C03       0.0764
     49 H9         20.8366   13.1220    8.1485 H           1 C03       0.0480
     50 H10        19.6174   13.8920    4.2159 H           1 C03       0.0487
     51 H11        17.3724   14.2736    4.9649 H           1 C03       0.0578
     52 H12        23.2396   14.4338    4.8607 H           1 C03       0.0818
     53 H13        24.1964   15.3198    6.9733 H           1 C03       0.0276
     54 H14        24.0856   13.5527    6.9419 H           1 C03       0.0276
     55 H15        22.9164   14.4932    7.8834 H           1 C03       0.0276
     56 H16        13.0134    6.2405   10.5430 H           1 C03       0.0476
     57 H17        16.3006    6.9960   13.0981 H           1 C03       0.0490
     58 H18        16.6245    9.1649   12.0390 H           1 C03       0.0582
     59 H19        13.6341    4.2912   14.1661 H           1 C03       0.0578
     60 H20        12.7675    5.7547   13.6831 H           1 C03       0.0578
     61 H21        14.3420    5.8722   14.5156 H           1 C03       0.0578
@<TRIPOS>BOND
     1     1     2  ar
     2     1     6  ar
     3     2     3  ar
     4     3     4  ar
     5     3     7   1
     6     4     5  ar
     7     4     9   1
     8     5     6  ar
     9     6    13   1
    10     7     8   2
    11     7    10   1
    12     8     9   1
    13     8    11   1
    14     9    12   1
    15    10    31   2
    16    10    34   1
    17    12    18   1
    18    13    14   1
    19    14    15   1
    20    14    16   1
    21    14    17   1
    22    18    19  ar
    23    18    23  ar
    24    19    20  ar
    25    20    21  ar
    26    20    25   1
    27    21    22  ar
    28    22    23  ar
    29    23    24   1
    30    25    26   1
    31    26    27   1
    32    26    28   1
    33    28    29  ar
    34    28    30  ar
    35    31    32   1
    36    32    33   1
    37    33    34  ar
    38    33    35  ar
    39    34    38  ar
    40    35    36  ar
    41    36    37  ar
    42    36    39   1
    43    37    38  ar
    44    39    40   1
    45     1    41   1
    46     2    42   1
    47     5    43   1
    48    11    44   1
    49    11    45   1
    50    11    46   1
    51    12    47   1
    52    12    48   1
    53    19    49   1
    54    21    50   1
    55    22    51   1
    56    26    52   1
    57    27    53   1
    58    27    54   1
    59    27    55   1
    60    35    56   1
    61    37    57   1
    62    38    58   1
    63    40    59   1
    64    40    60   1
    65    40    61   1
@<TRIPOS>SUBSTRUCTURE
     1  C03      1

