@<TRIPOS>MOLECULE
2p4y_ligand_071
    61    65
SMALL
GAST_HUCK
****
This file was generated by PARSER (from files_GN.cpp)

@<TRIPOS>ATOM
      1 C1          8.1848    7.6623    9.7552 C.ar        1 C03      -0.0494
      2 C2          9.3995    7.1604   10.2611 C.ar        1 C03      -0.0824
      3 C3          9.3648    6.0778   11.1603 C.ar        1 C03      -0.0320
      4 C4          8.1426    5.5692   11.5998 C.ar        1 C03       0.0592
      5 C5          6.9234    6.1082   11.1291 C.ar        1 C03      -0.0175
      6 C6          6.9445    7.1244   10.1590 C.ar        1 C03       0.0845
      7 C10        10.3685    5.3174   11.7522 C.2         1 C03      -0.0105
      8 C11         9.7044    4.2934   12.4515 C.2         1 C03       0.0574
      9 N12         8.3539    4.5277   12.4307 N.pl3       1 C03      -0.2466
     10 C13        11.7649    5.5103   11.6003 C.2         1 C03       0.0368
     11 C14        10.3715    3.0431   12.8886 C.3         1 C03      -0.0027
     12 C18         7.2324    3.8388   13.0305 C.3         1 C03       0.0846
     13 O19         5.7717    7.6181    9.6545 O.3         1 C03      -0.2340
     14 C20         4.9745    6.7010    8.8770 C.3         1 C03       0.5447
     15 F21         3.9331    7.4103    8.3354 F           1 C03      -0.1402
     16 F22         4.4280    5.7051    9.6523 F           1 C03      -0.1402
     17 F23         5.6636    6.1283    7.8332 F           1 C03      -0.1402
     18 C24         7.5171    2.7812   14.0252 C.ar        1 C03      -0.0091
     19 C27         7.2550    1.4389   13.6817 C.ar        1 C03      -0.0287
     20 C28         7.6265    0.3928   14.5355 C.ar        1 C03       0.0876
     21 C29         8.1436    0.6914   15.8102 C.ar        1 C03      -0.0391
     22 C30         8.3573    2.0253   16.1975 C.ar        1 C03      -0.0631
     23 C31         8.0710    3.0751   15.3011 C.ar        1 C03       0.0319
     24 CL1         8.4501    4.6568   15.7979 Cl          1 C03      -0.0872
     25 O36         7.3278   -0.8882   14.1830 O.3         1 C03      -0.3024
     26 C37         7.9465   -1.5407   13.0433 C.3         1 C03       0.1302
     27 C38         8.7546   -0.7054   12.0101 C.3         1 C03      -0.0222
     28 C42         6.8501   -2.2586   12.3588 C.2         1 C03       0.0683
     29 O44         7.1216   -3.3284   11.5753 O.co2       1 C03      -0.5660
     30 O45         5.6321   -1.6789   12.2400 O.co2       1 C03      -0.5660
     31 N46        12.3605    6.0457   10.5145 N.2         1 C03      -0.1679
     32 O47        13.6655    6.0496   10.6460 O.3         1 C03      -0.1876
     33 C48        13.9772    5.5185   11.8469 C.ar        1 C03       0.1433
     34 C49        12.7901    5.1870   12.4902 C.ar        1 C03       0.0134
     35 C50        15.2304    5.2862   12.4395 C.ar        1 C03       0.0032
     36 C51        15.2704    4.7117   13.7276 C.ar        1 C03       0.0851
     37 C52        14.0616    4.3929   14.3967 C.ar        1 C03      -0.0395
     38 C53        12.8145    4.6461   13.7887 C.ar        1 C03      -0.0670
     39 O57        16.4793    4.4193   14.3004 O.3         1 C03      -0.3234
     40 C58        16.9074    5.3949   15.2625 C.3         1 C03       0.0592
     41 H1          8.2062    8.4312    9.0915 H           1 C03       0.0459
     42 H2         10.2855    7.5619    9.9592 H           1 C03       0.0504
     43 H3          6.0277    5.7400   11.4494 H           1 C03       0.0444
     44 H4         11.3867    2.9653   12.5025 H           1 C03       0.0449
     45 H5          9.8150    2.1963   12.4892 H           1 C03       0.0449
     46 H6         10.4178    2.9709   13.9705 H           1 C03       0.0449
     47 H7          6.6266    3.4339   12.2146 H           1 C03       0.0764
     48 H8          6.5966    4.5709   13.5400 H           1 C03       0.0764
     49 H9          6.8094    1.2075   12.7959 H           1 C03       0.0480
     50 H10         8.3538   -0.0537   16.4691 H           1 C03       0.0487
     51 H11         8.7513    2.2230   17.1265 H           1 C03       0.0578
     52 H12         8.6346   -2.2936   13.4409 H           1 C03       0.0818
     53 H13         9.1702   -1.3590   11.2411 H           1 C03       0.0276
     54 H14         9.5922   -0.2064   12.5073 H           1 C03       0.0276
     55 H15         8.1212    0.0464   11.5315 H           1 C03       0.0276
     56 H16        16.0915    5.5199   11.9435 H           1 C03       0.0476
     57 H17        14.0968    3.9814   15.3332 H           1 C03       0.0490
     58 H18        11.9457    4.4342   14.2830 H           1 C03       0.0582
     59 H19        17.8787    5.0959   15.6609 H           1 C03       0.0578
     60 H20        16.2066    5.4605   16.0980 H           1 C03       0.0578
     61 H21        17.0133    6.3788   14.8012 H           1 C03       0.0578
@<TRIPOS>BOND
     1     1     2  ar
     2     1     6  ar
     3     2     3  ar
     4     3     4  ar
     5     3     7   1
     6     4     5  ar
     7     4     9   1
     8     5     6  ar
     9     6    13   1
    10     7     8   2
    11     7    10   1
    12     8     9   1
    13     8    11   1
    14     9    12   1
    15    10    31   2
    16    10    34   1
    17    12    18   1
    18    13    14   1
    19    14    15   1
    20    14    16   1
    21    14    17   1
    22    18    19  ar
    23    18    23  ar
    24    19    20  ar
    25    20    21  ar
    26    20    25   1
    27    21    22  ar
    28    22    23  ar
    29    23    24   1
    30    25    26   1
    31    26    27   1
    32    26    28   1
    33    28    29  ar
    34    28    30  ar
    35    31    32   1
    36    32    33   1
    37    33    34  ar
    38    33    35  ar
    39    34    38  ar
    40    35    36  ar
    41    36    37  ar
    42    36    39   1
    43    37    38  ar
    44    39    40   1
    45     1    41   1
    46     2    42   1
    47     5    43   1
    48    11    44   1
    49    11    45   1
    50    11    46   1
    51    12    47   1
    52    12    48   1
    53    19    49   1
    54    21    50   1
    55    22    51   1
    56    26    52   1
    57    27    53   1
    58    27    54   1
    59    27    55   1
    60    35    56   1
    61    37    57   1
    62    38    58   1
    63    40    59   1
    64    40    60   1
    65    40    61   1
@<TRIPOS>SUBSTRUCTURE
     1  C03      1

