@<TRIPOS>MOLECULE
2pcp_ligand_008
    44    46
SMALL
GAST_HUCK
****
This file was generated by PARSER (from files_GN.cpp)

@<TRIPOS>ATOM
      1 CP        -11.3841  -37.9029  -15.0720 C.3         1 MOL      -0.0434
      2 CA         -9.0859  -33.3889  -13.5872 C.ar        1 MOL      -0.0018
      3 CB         -9.0736  -32.5908  -14.7729 C.ar        1 MOL      -0.0343
      4 CC         -7.8912  -32.1040  -15.3486 C.ar        1 MOL      -0.0322
      5 CD         -6.6571  -32.3356  -14.7222 C.ar        1 MOL      -0.0340
      6 CE         -6.6153  -33.0946  -13.5466 C.ar        1 MOL      -0.0322
      7 CF         -7.8026  -33.6406  -13.0186 C.ar        1 MOL      -0.0343
      8 CG        -10.3805  -33.9963  -13.0035 C.3         1 MOL      -0.0135
      9 CH        -10.2471  -34.0234  -11.4138 C.3         1 MOL      -0.0293
     10 CI        -11.5229  -34.1847  -10.5334 C.3         1 MOL      -0.0551
     11 CJ        -12.6458  -33.2080  -10.9392 C.3         1 MOL      -0.0541
     12 CK        -12.9091  -33.2872  -12.4570 C.3         1 MOL      -0.0551
     13 CL        -11.6134  -33.0273  -13.2670 C.3         1 MOL      -0.0293
     14 NM        -10.4894  -35.3888  -13.6637 N.4         1 MOL       0.1961
     15 CN        -10.9490  -35.3998  -15.1055 C.3         1 MOL      -0.0361
     16 CO        -10.6782  -36.7512  -15.8162 C.3         1 MOL      -0.0123
     17 CQ        -10.9753  -37.9034  -13.5821 C.3         1 MOL      -0.0123
     18 CR        -11.1733  -36.5088  -12.9249 C.3         1 MOL      -0.0361
     19 H1        -12.4676  -37.7878  -15.1562 H           1 MOL       0.0269
     20 H2        -11.1117  -38.8569  -15.5292 H           1 MOL       0.0269
     21 H3         -9.9383  -32.3714  -15.2621 H           1 MOL       0.0852
     22 H4         -7.9234  -31.5727  -16.2225 H           1 MOL       0.0698
     23 H5         -5.7960  -31.9618  -15.1291 H           1 MOL       0.0856
     24 H6         -5.7159  -33.2667  -13.0871 H           1 MOL       0.0698
     25 H7         -7.7013  -34.2240  -12.1891 H           1 MOL       0.0852
     26 H8         -9.7923  -33.0800  -11.0930 H           1 MOL       0.0227
     27 H9         -9.5625  -34.8185  -11.1126 H           1 MOL       0.0227
     28 H10       -11.2567  -33.9915   -9.4918 H           1 MOL       0.0260
     29 H11       -11.9128  -35.1997  -10.5738 H           1 MOL       0.0260
     30 H12       -12.3585  -32.1885  -10.6656 H           1 MOL       0.0265
     31 H13       -13.5618  -33.4532  -10.3931 H           1 MOL       0.0265
     32 H14       -13.6557  -32.5320  -12.7218 H           1 MOL       0.0260
     33 H15       -13.3247  -34.2614  -12.7143 H           1 MOL       0.0260
     34 H16       -11.9050  -33.0264  -14.3161 H           1 MOL       0.0227
     35 H17       -11.3051  -32.0014  -13.0359 H           1 MOL       0.0227
     36 H18        -9.5220  -35.7133  -13.7169 H           1 MOL       0.1993
     37 H19       -12.0206  -35.1953  -15.1655 H           1 MOL       0.0815
     38 H20       -10.4404  -34.6355  -15.6877 H           1 MOL       0.0815
     39 H21       -11.0425  -36.7081  -16.8480 H           1 MOL       0.0317
     40 H22        -9.5999  -36.9346  -15.8442 H           1 MOL       0.0317
     41 H23        -9.9233  -38.1909  -13.5021 H           1 MOL       0.0317
     42 H24       -11.5679  -38.6485  -13.0471 H           1 MOL       0.0317
     43 H25       -12.2422  -36.3135  -12.8271 H           1 MOL       0.0815
     44 H26       -10.7530  -36.6173  -11.9272 H           1 MOL       0.0815
@<TRIPOS>BOND
     1     1    17   1
     2     1    16   1
     3    16    15   1
     4    15    14   1
     5    14    18   1
     6    14     8   1
     7     8    13   1
     8     8     9   1
     9     8     2   1
    10     2     7  ar
    11     2     3  ar
    12     3     4  ar
    13     4     5  ar
    14     5     6  ar
    15     6     7  ar
    16     9    10   1
    17    10    11   1
    18    11    12   1
    19    12    13   1
    20    18    17   1
    21     1    19   1
    22     1    20   1
    23     3    21   1
    24     4    22   1
    25     5    23   1
    26     6    24   1
    27     7    25   1
    28     9    26   1
    29     9    27   1
    30    10    28   1
    31    10    29   1
    32    11    30   1
    33    11    31   1
    34    12    32   1
    35    12    33   1
    36    13    34   1
    37    13    35   1
    38    14    36   1
    39    15    37   1
    40    15    38   1
    41    16    39   1
    42    16    40   1
    43    17    41   1
    44    17    42   1
    45    18    43   1
    46    18    44   1
@<TRIPOS>SUBSTRUCTURE
     1  MOL      1

