@<TRIPOS>MOLECULE
2pcp_ligand_020
    44    46
SMALL
GAST_HUCK
****
This file was generated by PARSER (from files_GN.cpp)

@<TRIPOS>ATOM
      1 CP        -12.1727  -33.8049   -9.8471 C.3         1 MOL      -0.0434
      2 CA        -11.1439  -33.0251  -14.7683 C.ar        1 MOL      -0.0018
      3 CB        -12.3627  -32.3703  -15.1077 C.ar        1 MOL      -0.0343
      4 CC        -13.2792  -32.9008  -16.0341 C.ar        1 MOL      -0.0322
      5 CD        -13.0032  -34.1233  -16.6651 C.ar        1 MOL      -0.0340
      6 CE        -11.8082  -34.7966  -16.3711 C.ar        1 MOL      -0.0322
      7 CF        -10.9091  -34.2643  -15.4297 C.ar        1 MOL      -0.0343
      8 CG        -10.2025  -32.4536  -13.6956 C.3         1 MOL      -0.0135
      9 CH         -8.7235  -33.0083  -13.8682 C.3         1 MOL      -0.0293
     10 CI         -8.0299  -32.6293  -15.2036 C.3         1 MOL      -0.0551
     11 CJ         -7.9515  -31.0972  -15.3842 C.3         1 MOL      -0.0541
     12 CK         -9.3248  -30.4176  -15.1548 C.3         1 MOL      -0.0551
     13 CL         -9.9814  -30.8882  -13.8257 C.3         1 MOL      -0.0293
     14 NM        -10.7572  -32.6862  -12.2719 N.4         1 MOL       0.1961
     15 CN        -10.2005  -33.8311  -11.4632 C.3         1 MOL      -0.0361
     16 CO        -10.6365  -33.7870   -9.9730 C.3         1 MOL      -0.0123
     17 CQ        -12.7838  -32.6526  -10.6750 C.3         1 MOL      -0.0123
     18 CR        -12.2604  -32.6509  -12.1366 C.3         1 MOL      -0.0361
     19 H1        -12.5570  -34.7695  -10.2067 H           1 MOL       0.0269
     20 H2        -12.4588  -33.6993   -8.7958 H           1 MOL       0.0269
     21 H3        -12.6245  -31.4940  -14.6686 H           1 MOL       0.0852
     22 H4        -14.1381  -32.3977  -16.2549 H           1 MOL       0.0698
     23 H5        -13.6753  -34.5242  -17.3270 H           1 MOL       0.0856
     24 H6        -11.6026  -35.6826  -16.8441 H           1 MOL       0.0698
     25 H7        -10.0689  -34.8079  -15.2344 H           1 MOL       0.0852
     26 H8         -8.6893  -34.0904  -13.7725 H           1 MOL       0.0227
     27 H9         -8.0912  -32.6262  -13.0583 H           1 MOL       0.0227
     28 H10        -8.5672  -33.0669  -16.0433 H           1 MOL       0.0260
     29 H11        -7.0117  -33.0430  -15.2164 H           1 MOL       0.0260
     30 H12        -7.5990  -30.8641  -16.3909 H           1 MOL       0.0265
     31 H13        -7.2260  -30.6863  -14.6715 H           1 MOL       0.0265
     32 H14        -9.9834  -30.6406  -15.9931 H           1 MOL       0.0260
     33 H15        -9.1858  -29.3371  -15.1291 H           1 MOL       0.0260
     34 H16        -9.3413  -30.5439  -13.0127 H           1 MOL       0.0227
     35 H17       -10.9131  -30.3395  -13.6930 H           1 MOL       0.0227
     36 H18       -10.4587  -31.8526  -11.7565 H           1 MOL       0.1993
     37 H19       -10.5000  -34.7851  -11.9087 H           1 MOL       0.0815
     38 H20        -9.1121  -33.8014  -11.4377 H           1 MOL       0.0815
     39 H21       -10.2168  -34.6457   -9.4400 H           1 MOL       0.0317
     40 H22       -10.2502  -32.8791   -9.5093 H           1 MOL       0.0317
     41 H23       -12.5323  -31.7041  -10.1960 H           1 MOL       0.0317
     42 H24       -13.8723  -32.7528  -10.6747 H           1 MOL       0.0317
     43 H25       -12.7073  -33.5068  -12.6456 H           1 MOL       0.0815
     44 H26       -12.6531  -31.7442  -12.5999 H           1 MOL       0.0815
@<TRIPOS>BOND
     1     1    17   1
     2     1    16   1
     3    16    15   1
     4    15    14   1
     5    14    18   1
     6    14     8   1
     7     8    13   1
     8     8     9   1
     9     8     2   1
    10     2     7  ar
    11     2     3  ar
    12     3     4  ar
    13     4     5  ar
    14     5     6  ar
    15     6     7  ar
    16     9    10   1
    17    10    11   1
    18    11    12   1
    19    12    13   1
    20    18    17   1
    21     1    19   1
    22     1    20   1
    23     3    21   1
    24     4    22   1
    25     5    23   1
    26     6    24   1
    27     7    25   1
    28     9    26   1
    29     9    27   1
    30    10    28   1
    31    10    29   1
    32    11    30   1
    33    11    31   1
    34    12    32   1
    35    12    33   1
    36    13    34   1
    37    13    35   1
    38    14    36   1
    39    15    37   1
    40    15    38   1
    41    16    39   1
    42    16    40   1
    43    17    41   1
    44    17    42   1
    45    18    43   1
    46    18    44   1
@<TRIPOS>SUBSTRUCTURE
     1  MOL      1

