@<TRIPOS>MOLECULE
2pcp_ligand_027
    44    46
SMALL
GAST_HUCK
****
This file was generated by PARSER (from files_GN.cpp)

@<TRIPOS>ATOM
      1 CP         -3.1396  -27.4363  -13.4114 C.3         1 MOL      -0.0434
      2 CA         -8.4259  -27.6446  -13.9416 C.ar        1 MOL      -0.0018
      3 CB         -8.7099  -28.8896  -13.3170 C.ar        1 MOL      -0.0343
      4 CC         -9.4705  -29.8934  -13.9478 C.ar        1 MOL      -0.0322
      5 CD         -9.9539  -29.6915  -15.2566 C.ar        1 MOL      -0.0340
      6 CE         -9.6371  -28.5109  -15.9283 C.ar        1 MOL      -0.0322
      7 CF         -8.8608  -27.5241  -15.2980 C.ar        1 MOL      -0.0343
      8 CG         -7.5973  -26.5479  -13.2222 C.3         1 MOL      -0.0135
      9 CH         -7.8985  -25.1265  -13.8834 C.3         1 MOL      -0.0293
     10 CI         -7.7739  -23.8188  -13.0478 C.3         1 MOL      -0.0551
     11 CJ         -8.4253  -23.9589  -11.6487 C.3         1 MOL      -0.0541
     12 CK         -7.8723  -25.1844  -10.9040 C.3         1 MOL      -0.0551
     13 CL         -8.1449  -26.4692  -11.7322 C.3         1 MOL      -0.0293
     14 NM         -6.1012  -26.9409  -13.1556 N.4         1 MOL       0.1961
     15 CN         -5.0732  -25.8417  -13.0255 C.3         1 MOL      -0.0361
     16 CO         -3.7268  -26.3660  -12.4726 C.3         1 MOL      -0.0123
     17 CQ         -4.2000  -28.5221  -13.7195 C.3         1 MOL      -0.0123
     18 CR         -5.5623  -27.9295  -14.1627 C.3         1 MOL      -0.0361
     19 H1         -2.8163  -26.9605  -14.3386 H           1 MOL       0.0269
     20 H2         -2.2661  -27.8912  -12.9410 H           1 MOL       0.0269
     21 H3         -8.3533  -29.1014  -12.3832 H           1 MOL       0.0852
     22 H4         -9.6701  -30.7730  -13.4705 H           1 MOL       0.0698
     23 H5        -10.5102  -30.4154  -15.7127 H           1 MOL       0.0856
     24 H6         -9.9599  -28.3676  -16.8938 H           1 MOL       0.0698
     25 H7         -8.6209  -26.7112  -15.8611 H           1 MOL       0.0852
     26 H8         -8.9484  -25.1077  -14.2008 H           1 MOL       0.0227
     27 H9         -7.2908  -25.0142  -14.7807 H           1 MOL       0.0227
     28 H10        -8.2596  -22.9961  -13.5776 H           1 MOL       0.0260
     29 H11        -6.7385  -23.5207  -12.9545 H           1 MOL       0.0260
     30 H12        -9.5071  -24.0826  -11.7500 H           1 MOL       0.0265
     31 H13        -8.2505  -23.0580  -11.0563 H           1 MOL       0.0265
     32 H14        -8.3560  -25.2542   -9.9300 H           1 MOL       0.0260
     33 H15        -6.8154  -25.0592  -10.7073 H           1 MOL       0.0260
     34 H16        -7.7531  -27.3021  -11.1408 H           1 MOL       0.0227
     35 H17        -9.2338  -26.5804  -11.7521 H           1 MOL       0.0227
     36 H18        -6.0306  -27.4554  -12.2785 H           1 MOL       0.1993
     37 H19        -4.9078  -25.3452  -13.9906 H           1 MOL       0.0815
     38 H20        -5.3638  -25.0864  -12.3156 H           1 MOL       0.0815
     39 H21        -3.0197  -25.5381  -12.3702 H           1 MOL       0.0317
     40 H22        -3.8925  -26.7942  -11.4787 H           1 MOL       0.0317
     41 H23        -4.3522  -29.1275  -12.8198 H           1 MOL       0.0317
     42 H24        -3.8229  -29.1779  -14.5049 H           1 MOL       0.0317
     43 H25        -5.4810  -27.4565  -15.1428 H           1 MOL       0.0815
     44 H26        -6.2093  -28.7986  -14.2769 H           1 MOL       0.0815
@<TRIPOS>BOND
     1     1    17   1
     2     1    16   1
     3    16    15   1
     4    15    14   1
     5    14    18   1
     6    14     8   1
     7     8    13   1
     8     8     9   1
     9     8     2   1
    10     2     7  ar
    11     2     3  ar
    12     3     4  ar
    13     4     5  ar
    14     5     6  ar
    15     6     7  ar
    16     9    10   1
    17    10    11   1
    18    11    12   1
    19    12    13   1
    20    18    17   1
    21     1    19   1
    22     1    20   1
    23     3    21   1
    24     4    22   1
    25     5    23   1
    26     6    24   1
    27     7    25   1
    28     9    26   1
    29     9    27   1
    30    10    28   1
    31    10    29   1
    32    11    30   1
    33    11    31   1
    34    12    32   1
    35    12    33   1
    36    13    34   1
    37    13    35   1
    38    14    36   1
    39    15    37   1
    40    15    38   1
    41    16    39   1
    42    16    40   1
    43    17    41   1
    44    17    42   1
    45    18    43   1
    46    18    44   1
@<TRIPOS>SUBSTRUCTURE
     1  MOL      1

