@<TRIPOS>MOLECULE
2pcp_ligand_063
    44    46
SMALL
GAST_HUCK
****
This file was generated by PARSER (from files_GN.cpp)

@<TRIPOS>ATOM
      1 CP         -9.4637  -26.5853  -17.0780 C.3         1 MOL      -0.0434
      2 CA         -9.0791  -26.3746  -12.0354 C.ar        1 MOL      -0.0018
      3 CB         -7.8552  -27.1119  -11.9923 C.ar        1 MOL      -0.0343
      4 CC         -6.6957  -26.5915  -11.3858 C.ar        1 MOL      -0.0322
      5 CD         -6.7183  -25.3221  -10.8047 C.ar        1 MOL      -0.0340
      6 CE         -7.8977  -24.5698  -10.8179 C.ar        1 MOL      -0.0322
      7 CF         -9.0502  -25.0993  -11.4241 C.ar        1 MOL      -0.0343
      8 CG        -10.3565  -26.9369  -12.6754 C.3         1 MOL      -0.0135
      9 CH        -10.6379  -28.3850  -12.1023 C.3         1 MOL      -0.0293
     10 CI        -11.9347  -29.0495  -12.6431 C.3         1 MOL      -0.0551
     11 CJ        -13.1851  -28.2098  -12.2988 C.3         1 MOL      -0.0541
     12 CK        -13.0071  -26.7345  -12.7169 C.3         1 MOL      -0.0551
     13 CL        -11.6680  -26.1454  -12.2169 C.3         1 MOL      -0.0293
     14 NM        -10.2622  -26.9117  -14.2045 N.4         1 MOL       0.1961
     15 CN        -10.1379  -25.5473  -14.8417 C.3         1 MOL      -0.0361
     16 CO        -10.4039  -25.5832  -16.3694 C.3         1 MOL      -0.0123
     17 CQ         -9.5326  -27.9680  -16.3923 C.3         1 MOL      -0.0123
     18 CR         -9.2726  -27.8389  -14.8681 C.3         1 MOL      -0.0361
     19 H1         -9.7523  -26.6794  -18.1287 H           1 MOL       0.0269
     20 H2         -8.4386  -26.2120  -17.0383 H           1 MOL       0.0269
     21 H3         -7.7814  -28.0470  -12.3874 H           1 MOL       0.0852
     22 H4         -5.8329  -27.1446  -11.3685 H           1 MOL       0.0698
     23 H5         -5.8757  -24.9435  -10.3680 H           1 MOL       0.0856
     24 H6         -7.9228  -23.6400  -10.3885 H           1 MOL       0.0698
     25 H7         -9.8780  -24.5132  -11.3953 H           1 MOL       0.0852
     26 H8        -10.7138  -28.3392  -11.0000 H           1 MOL       0.0227
     27 H9         -9.8194  -29.0773  -12.2986 H           1 MOL       0.0227
     28 H10       -12.0479  -30.0485  -12.2108 H           1 MOL       0.0260
     29 H11       -11.8656  -29.1693  -13.7238 H           1 MOL       0.0260
     30 H12       -13.3698  -28.2638  -11.2209 H           1 MOL       0.0265
     31 H13       -14.0557  -28.6314  -12.8084 H           1 MOL       0.0265
     32 H14       -13.8327  -26.1505  -12.2986 H           1 MOL       0.0260
     33 H15       -13.0613  -26.6525  -13.8070 H           1 MOL       0.0260
     34 H16       -11.6534  -25.1054  -12.5353 H           1 MOL       0.0227
     35 H17       -11.7018  -26.1116  -11.1252 H           1 MOL       0.0227
     36 H18       -11.1707  -27.2582  -14.5179 H           1 MOL       0.1993
     37 H19       -10.8606  -24.8425  -14.4463 H           1 MOL       0.0815
     38 H20        -9.1421  -25.1304  -14.6589 H           1 MOL       0.0815
     39 H21       -11.4414  -25.8797  -16.5458 H           1 MOL       0.0317
     40 H22       -10.2579  -24.5904  -16.7971 H           1 MOL       0.0317
     41 H23        -8.7894  -28.6322  -16.8375 H           1 MOL       0.0317
     42 H24       -10.5187  -28.4110  -16.5554 H           1 MOL       0.0317
     43 H25        -9.3290  -28.8504  -14.4727 H           1 MOL       0.0815
     44 H26        -8.2482  -27.4825  -14.7241 H           1 MOL       0.0815
@<TRIPOS>BOND
     1     1    17   1
     2     1    16   1
     3    16    15   1
     4    15    14   1
     5    14    18   1
     6    14     8   1
     7     8    13   1
     8     8     9   1
     9     8     2   1
    10     2     7  ar
    11     2     3  ar
    12     3     4  ar
    13     4     5  ar
    14     5     6  ar
    15     6     7  ar
    16     9    10   1
    17    10    11   1
    18    11    12   1
    19    12    13   1
    20    18    17   1
    21     1    19   1
    22     1    20   1
    23     3    21   1
    24     4    22   1
    25     5    23   1
    26     6    24   1
    27     7    25   1
    28     9    26   1
    29     9    27   1
    30    10    28   1
    31    10    29   1
    32    11    30   1
    33    11    31   1
    34    12    32   1
    35    12    33   1
    36    13    34   1
    37    13    35   1
    38    14    36   1
    39    15    37   1
    40    15    38   1
    41    16    39   1
    42    16    40   1
    43    17    41   1
    44    17    42   1
    45    18    43   1
    46    18    44   1
@<TRIPOS>SUBSTRUCTURE
     1  MOL      1

