@<TRIPOS>MOLECULE
2pcp_ligand_017
    44    46
SMALL
GAST_HUCK
****
This file was generated by PARSER (from files_GN.cpp)

@<TRIPOS>ATOM
      1 CP        -13.3865  -32.7040  -10.3367 C.3         1 MOL      -0.0434
      2 CA        -10.5666  -34.7451  -14.0378 C.ar        1 MOL      -0.0018
      3 CB        -10.3945  -35.9227  -13.2579 C.ar        1 MOL      -0.0343
      4 CC        -10.7325  -37.2002  -13.7355 C.ar        1 MOL      -0.0322
      5 CD        -11.2571  -37.3496  -15.0268 C.ar        1 MOL      -0.0340
      6 CE        -11.4302  -36.2190  -15.8386 C.ar        1 MOL      -0.0322
      7 CF        -11.0983  -34.9417  -15.3466 C.ar        1 MOL      -0.0343
      8 CG        -10.2093  -33.3630  -13.4776 C.3         1 MOL      -0.0135
      9 CH         -8.7024  -33.3958  -12.9814 C.3         1 MOL      -0.0293
     10 CI         -8.1614  -32.0401  -12.4512 C.3         1 MOL      -0.0551
     11 CJ         -8.2477  -30.9343  -13.5264 C.3         1 MOL      -0.0541
     12 CK         -9.6654  -30.8501  -14.1342 C.3         1 MOL      -0.0551
     13 CL        -10.1613  -32.2411  -14.6051 C.3         1 MOL      -0.0293
     14 NM        -11.1892  -32.9380  -12.3686 N.4         1 MOL       0.1961
     15 CN        -12.6424  -32.8727  -12.7781 C.3         1 MOL      -0.0361
     16 CO        -13.5001  -32.0892  -11.7507 C.3         1 MOL      -0.0123
     17 CQ        -11.9069  -32.8843   -9.9281 C.3         1 MOL      -0.0123
     18 CR        -11.1113  -33.6334  -11.0281 C.3         1 MOL      -0.0361
     19 H1        -13.8863  -32.0546   -9.6124 H           1 MOL       0.0269
     20 H2        -13.8872  -33.6749  -10.3204 H           1 MOL       0.0269
     21 H3         -9.9927  -35.8758  -12.3202 H           1 MOL       0.0852
     22 H4        -10.5957  -38.0234  -13.1435 H           1 MOL       0.0698
     23 H5        -11.5015  -38.2777  -15.3796 H           1 MOL       0.0856
     24 H6        -11.8012  -36.3211  -16.7843 H           1 MOL       0.0698
     25 H7        -11.2541  -34.1658  -15.9842 H           1 MOL       0.0852
     26 H8         -8.0551  -33.7159  -13.8081 H           1 MOL       0.0227
     27 H9         -8.5393  -34.1270  -12.1929 H           1 MOL       0.0227
     28 H10        -7.1188  -32.1623  -12.1520 H           1 MOL       0.0260
     29 H11        -8.7264  -31.7307  -11.5666 H           1 MOL       0.0260
     30 H12        -7.5266  -31.1464  -14.3211 H           1 MOL       0.0265
     31 H13        -7.9825  -29.9700  -13.0813 H           1 MOL       0.0265
     32 H14        -9.6485  -30.1643  -14.9858 H           1 MOL       0.0260
     33 H15       -10.3602  -30.4407  -13.3978 H           1 MOL       0.0260
     34 H16       -11.1321  -32.0825  -15.0766 H           1 MOL       0.0227
     35 H17        -9.4985  -32.5708  -15.4130 H           1 MOL       0.0227
     36 H18       -10.9302  -31.9705  -12.1515 H           1 MOL       0.1993
     37 H19       -12.7823  -32.3620  -13.7259 H           1 MOL       0.0815
     38 H20       -13.0529  -33.8803  -12.8975 H           1 MOL       0.0815
     39 H21       -13.1642  -31.0495  -11.7234 H           1 MOL       0.0317
     40 H22       -14.5453  -32.0965  -12.0653 H           1 MOL       0.0317
     41 H23       -11.8560  -33.4461   -8.9928 H           1 MOL       0.0317
     42 H24       -11.4493  -31.9066   -9.7603 H           1 MOL       0.0317
     43 H25       -10.0879  -33.6966  -10.6642 H           1 MOL       0.0815
     44 H26       -11.5064  -34.6500  -11.0932 H           1 MOL       0.0815
@<TRIPOS>BOND
     1     1    17   1
     2     1    16   1
     3    16    15   1
     4    15    14   1
     5    14    18   1
     6    14     8   1
     7     8    13   1
     8     8     9   1
     9     8     2   1
    10     2     7  ar
    11     2     3  ar
    12     3     4  ar
    13     4     5  ar
    14     5     6  ar
    15     6     7  ar
    16     9    10   1
    17    10    11   1
    18    11    12   1
    19    12    13   1
    20    18    17   1
    21     1    19   1
    22     1    20   1
    23     3    21   1
    24     4    22   1
    25     5    23   1
    26     6    24   1
    27     7    25   1
    28     9    26   1
    29     9    27   1
    30    10    28   1
    31    10    29   1
    32    11    30   1
    33    11    31   1
    34    12    32   1
    35    12    33   1
    36    13    34   1
    37    13    35   1
    38    14    36   1
    39    15    37   1
    40    15    38   1
    41    16    39   1
    42    16    40   1
    43    17    41   1
    44    17    42   1
    45    18    43   1
    46    18    44   1
@<TRIPOS>SUBSTRUCTURE
     1  MOL      1

