@<TRIPOS>MOLECULE
2pcp_ligand_023
    44    46
SMALL
GAST_HUCK
****
This file was generated by PARSER (from files_GN.cpp)

@<TRIPOS>ATOM
      1 CP        -18.2474  -28.9186  -18.4992 C.3         1 MOL      -0.0434
      2 CA        -14.1057  -29.8105  -15.1891 C.ar        1 MOL      -0.0018
      3 CB        -13.2537  -29.0782  -16.0691 C.ar        1 MOL      -0.0343
      4 CC        -12.3049  -28.1478  -15.6122 C.ar        1 MOL      -0.0322
      5 CD        -12.1819  -27.8796  -14.2432 C.ar        1 MOL      -0.0340
      6 CE        -13.0144  -28.5591  -13.3355 C.ar        1 MOL      -0.0322
      7 CF        -13.9436  -29.5059  -13.8021 C.ar        1 MOL      -0.0343
      8 CG        -15.1557  -30.7934  -15.7480 C.3         1 MOL      -0.0135
      9 CH        -14.4688  -31.8711  -16.6889 C.3         1 MOL      -0.0293
     10 CI        -13.4206  -32.7594  -15.9634 C.3         1 MOL      -0.0551
     11 CJ        -14.0696  -33.5422  -14.7956 C.3         1 MOL      -0.0541
     12 CK        -14.8046  -32.5867  -13.8205 C.3         1 MOL      -0.0551
     13 CL        -15.7992  -31.6626  -14.5857 C.3         1 MOL      -0.0293
     14 NM        -16.3005  -30.0375  -16.4674 N.4         1 MOL       0.1961
     15 CN        -15.9227  -28.9064  -17.3954 C.3         1 MOL      -0.0361
     16 CO        -17.1240  -28.0509  -17.8904 C.3         1 MOL      -0.0123
     17 CQ        -18.6192  -30.0629  -17.5380 C.3         1 MOL      -0.0123
     18 CR        -17.3601  -30.8769  -17.1551 C.3         1 MOL      -0.0361
     19 H1        -19.1241  -28.2964  -18.6917 H           1 MOL       0.0269
     20 H2        -17.9142  -29.3325  -19.4558 H           1 MOL       0.0269
     21 H3        -13.3429  -29.1714  -17.0747 H           1 MOL       0.0852
     22 H4        -11.7149  -27.6436  -16.2831 H           1 MOL       0.0698
     23 H5        -11.5048  -27.1965  -13.9068 H           1 MOL       0.0856
     24 H6        -12.9402  -28.3546  -12.3358 H           1 MOL       0.0698
     25 H7        -14.5249  -29.9472  -13.0937 H           1 MOL       0.0852
     26 H8        -14.0108  -31.4079  -17.5619 H           1 MOL       0.0227
     27 H9        -15.2180  -32.5558  -17.0892 H           1 MOL       0.0227
     28 H10       -12.6036  -32.1447  -15.5776 H           1 MOL       0.0260
     29 H11       -12.9915  -33.4704  -16.6747 H           1 MOL       0.0260
     30 H12       -13.3030  -34.1005  -14.2540 H           1 MOL       0.0265
     31 H13       -14.7803  -34.2662  -15.2022 H           1 MOL       0.0265
     32 H14       -14.0651  -31.9931  -13.2819 H           1 MOL       0.0260
     33 H15       -15.3536  -33.1827  -13.0875 H           1 MOL       0.0260
     34 H16       -16.5513  -32.3464  -14.9850 H           1 MOL       0.0227
     35 H17       -16.3413  -31.0279  -13.8804 H           1 MOL       0.0227
     36 H18       -16.7804  -29.5583  -15.7061 H           1 MOL       0.1993
     37 H19       -15.2790  -28.1940  -16.8847 H           1 MOL       0.0815
     38 H20       -15.3775  -29.2917  -18.2591 H           1 MOL       0.0815
     39 H21       -17.5312  -27.4802  -17.0512 H           1 MOL       0.0317
     40 H22       -16.7797  -27.3386  -18.6418 H           1 MOL       0.0317
     41 H23       -19.3493  -30.7158  -18.0206 H           1 MOL       0.0317
     42 H24       -19.0822  -29.6582  -16.6333 H           1 MOL       0.0317
     43 H25       -17.7158  -31.6904  -16.5285 H           1 MOL       0.0815
     44 H26       -16.9516  -31.3265  -18.0664 H           1 MOL       0.0815
@<TRIPOS>BOND
     1     1    17   1
     2     1    16   1
     3    16    15   1
     4    15    14   1
     5    14    18   1
     6    14     8   1
     7     8    13   1
     8     8     9   1
     9     8     2   1
    10     2     7  ar
    11     2     3  ar
    12     3     4  ar
    13     4     5  ar
    14     5     6  ar
    15     6     7  ar
    16     9    10   1
    17    10    11   1
    18    11    12   1
    19    12    13   1
    20    18    17   1
    21     1    19   1
    22     1    20   1
    23     3    21   1
    24     4    22   1
    25     5    23   1
    26     6    24   1
    27     7    25   1
    28     9    26   1
    29     9    27   1
    30    10    28   1
    31    10    29   1
    32    11    30   1
    33    11    31   1
    34    12    32   1
    35    12    33   1
    36    13    34   1
    37    13    35   1
    38    14    36   1
    39    15    37   1
    40    15    38   1
    41    16    39   1
    42    16    40   1
    43    17    41   1
    44    17    42   1
    45    18    43   1
    46    18    44   1
@<TRIPOS>SUBSTRUCTURE
     1  MOL      1

