@<TRIPOS>MOLECULE
2pcp_ligand_062
    44    46
SMALL
GAST_HUCK
****
This file was generated by PARSER (from files_GN.cpp)

@<TRIPOS>ATOM
      1 CP         -7.0659  -29.3879  -13.8143 C.3         1 MOL      -0.0434
      2 CA         -9.0307  -24.7585  -13.3234 C.ar        1 MOL      -0.0018
      3 CB         -8.9163  -24.7057  -11.9018 C.ar        1 MOL      -0.0343
      4 CC         -8.1681  -23.7025  -11.2533 C.ar        1 MOL      -0.0322
      5 CD         -7.5161  -22.7312  -12.0095 C.ar        1 MOL      -0.0340
      6 CE         -7.6217  -22.7278  -13.4054 C.ar        1 MOL      -0.0322
      7 CF         -8.3761  -23.7319  -14.0404 C.ar        1 MOL      -0.0343
      8 CG         -9.8444  -25.8515  -14.0420 C.3         1 MOL      -0.0135
      9 CH        -11.2671  -25.9800  -13.3566 C.3         1 MOL      -0.0293
     10 CI        -12.2316  -26.9905  -14.0370 C.3         1 MOL      -0.0551
     11 CJ        -12.4863  -26.6240  -15.5137 C.3         1 MOL      -0.0541
     12 CK        -11.1556  -26.4347  -16.2750 C.3         1 MOL      -0.0551
     13 CL        -10.2327  -25.4411  -15.5352 C.3         1 MOL      -0.0293
     14 NM         -9.0595  -27.1639  -14.0692 N.4         1 MOL       0.1961
     15 CN         -7.7341  -27.1329  -14.7980 C.3         1 MOL      -0.0361
     16 CO         -7.2158  -28.5606  -15.1063 C.3         1 MOL      -0.0123
     17 CQ         -8.3711  -29.3561  -12.9820 C.3         1 MOL      -0.0123
     18 CR         -8.8625  -27.8992  -12.7658 C.3         1 MOL      -0.0361
     19 H1         -6.8199  -30.4234  -14.0699 H           1 MOL       0.0269
     20 H2         -6.2447  -28.9799  -13.2208 H           1 MOL       0.0269
     21 H3         -9.3831  -25.3847  -11.3042 H           1 MOL       0.0852
     22 H4         -8.1053  -23.6856  -10.2335 H           1 MOL       0.0698
     23 H5         -6.9527  -22.0000  -11.5412 H           1 MOL       0.0856
     24 H6         -7.1614  -22.0088  -13.9636 H           1 MOL       0.0698
     25 H7         -8.4288  -23.6716  -15.0528 H           1 MOL       0.0852
     26 H8        -11.7659  -24.9984  -13.3582 H           1 MOL       0.0227
     27 H9        -11.2055  -26.2639  -12.3113 H           1 MOL       0.0227
     28 H10       -13.1832  -26.9986  -13.5021 H           1 MOL       0.0260
     29 H11       -11.8085  -27.9989  -13.9775 H           1 MOL       0.0260
     30 H12       -13.0656  -25.6980  -15.5671 H           1 MOL       0.0265
     31 H13       -13.0744  -27.4148  -15.9948 H           1 MOL       0.0265
     32 H14       -11.3656  -26.0569  -17.2767 H           1 MOL       0.0260
     33 H15       -10.6532  -27.4028  -16.3853 H           1 MOL       0.0260
     34 H16        -9.3593  -25.3091  -16.1739 H           1 MOL       0.0227
     35 H17       -10.7336  -24.4695  -15.5271 H           1 MOL       0.0227
     36 H18        -9.6451  -27.7968  -14.6168 H           1 MOL       0.1993
     37 H19        -7.7976  -26.6350  -15.7596 H           1 MOL       0.0815
     38 H20        -6.9874  -26.5915  -14.2068 H           1 MOL       0.0815
     39 H21        -7.9241  -29.0578  -15.7763 H           1 MOL       0.0317
     40 H22        -6.2511  -28.4956  -15.6167 H           1 MOL       0.0317
     41 H23        -8.1939  -29.8332  -12.0181 H           1 MOL       0.0317
     42 H24        -9.1474  -29.9251  -13.5039 H           1 MOL       0.0317
     43 H25        -9.7929  -27.9824  -12.2123 H           1 MOL       0.0815
     44 H26        -8.1402  -27.3793  -12.1280 H           1 MOL       0.0815
@<TRIPOS>BOND
     1     1    17   1
     2     1    16   1
     3    16    15   1
     4    15    14   1
     5    14    18   1
     6    14     8   1
     7     8    13   1
     8     8     9   1
     9     8     2   1
    10     2     7  ar
    11     2     3  ar
    12     3     4  ar
    13     4     5  ar
    14     5     6  ar
    15     6     7  ar
    16     9    10   1
    17    10    11   1
    18    11    12   1
    19    12    13   1
    20    18    17   1
    21     1    19   1
    22     1    20   1
    23     3    21   1
    24     4    22   1
    25     5    23   1
    26     6    24   1
    27     7    25   1
    28     9    26   1
    29     9    27   1
    30    10    28   1
    31    10    29   1
    32    11    30   1
    33    11    31   1
    34    12    32   1
    35    12    33   1
    36    13    34   1
    37    13    35   1
    38    14    36   1
    39    15    37   1
    40    15    38   1
    41    16    39   1
    42    16    40   1
    43    17    41   1
    44    17    42   1
    45    18    43   1
    46    18    44   1
@<TRIPOS>SUBSTRUCTURE
     1  MOL      1

