@<TRIPOS>MOLECULE
2pcp_ligand_024
    44    46
SMALL
GAST_HUCK
****
This file was generated by PARSER (from files_GN.cpp)

@<TRIPOS>ATOM
      1 CP        -15.7675  -30.8316  -17.6206 C.3         1 MOL      -0.0434
      2 CA        -11.3857  -29.7079  -15.1136 C.ar        1 MOL      -0.0018
      3 CB        -11.2796  -30.8893  -14.3169 C.ar        1 MOL      -0.0343
      4 CC        -10.1810  -31.7664  -14.3896 C.ar        1 MOL      -0.0322
      5 CD         -9.0975  -31.4607  -15.2226 C.ar        1 MOL      -0.0340
      6 CE         -9.1366  -30.2939  -15.9980 C.ar        1 MOL      -0.0322
      7 CF        -10.2713  -29.4563  -15.9628 C.ar        1 MOL      -0.0343
      8 CG        -12.6271  -28.7901  -15.0490 C.3         1 MOL      -0.0135
      9 CH        -13.0688  -28.5647  -13.5442 C.3         1 MOL      -0.0293
     10 CI        -12.0248  -27.8273  -12.6580 C.3         1 MOL      -0.0551
     11 CJ        -11.6841  -26.4261  -13.2162 C.3         1 MOL      -0.0541
     12 CK        -11.2617  -26.5123  -14.6987 C.3         1 MOL      -0.0551
     13 CL        -12.3210  -27.3020  -15.5265 C.3         1 MOL      -0.0293
     14 NM        -13.8744  -29.3709  -15.7562 N.4         1 MOL       0.1961
     15 CN        -14.2313  -28.8524  -17.1311 C.3         1 MOL      -0.0361
     16 CO        -15.6409  -29.2950  -17.6061 C.3         1 MOL      -0.0123
     17 CQ        -15.4091  -31.3963  -16.2289 C.3         1 MOL      -0.0123
     18 CR        -14.0358  -30.8738  -15.7350 C.3         1 MOL      -0.0361
     19 H1        -16.7891  -31.1190  -17.8802 H           1 MOL       0.0269
     20 H2        -15.0955  -31.2475  -18.3736 H           1 MOL       0.0269
     21 H3        -12.0045  -31.1521  -13.6527 H           1 MOL       0.0852
     22 H4        -10.1655  -32.6244  -13.8325 H           1 MOL       0.0698
     23 H5         -8.2854  -32.0792  -15.2612 H           1 MOL       0.0856
     24 H6         -8.3470  -30.0638  -16.6019 H           1 MOL       0.0698
     25 H7        -10.2505  -28.6437  -16.5779 H           1 MOL       0.0852
     26 H8        -13.3423  -29.4998  -13.0556 H           1 MOL       0.0227
     27 H9        -13.9827  -27.9711  -13.5200 H           1 MOL       0.0227
     28 H10       -11.1073  -28.4185  -12.5968 H           1 MOL       0.0260
     29 H11       -12.4250  -27.7176  -11.6468 H           1 MOL       0.0260
     30 H12       -10.8753  -25.9834  -12.6311 H           1 MOL       0.0265
     31 H13       -12.5547  -25.7758  -13.1284 H           1 MOL       0.0265
     32 H14       -10.2778  -26.9831  -14.7748 H           1 MOL       0.0260
     33 H15       -11.1701  -25.5019  -15.1096 H           1 MOL       0.0260
     34 H16       -13.2413  -26.7107  -15.4736 H           1 MOL       0.0227
     35 H17       -12.0193  -27.2820  -16.5762 H           1 MOL       0.0227
     36 H18       -14.6624  -29.0454  -15.1943 H           1 MOL       0.1993
     37 H19       -14.2794  -27.7615  -17.1436 H           1 MOL       0.0815
     38 H20       -13.4844  -29.1592  -17.8671 H           1 MOL       0.0815
     39 H21       -16.3945  -28.8786  -16.9292 H           1 MOL       0.0317
     40 H22       -15.8399  -28.9049  -18.6092 H           1 MOL       0.0317
     41 H23       -15.3865  -32.4883  -16.2811 H           1 MOL       0.0317
     42 H24       -16.1817  -31.1090  -15.5111 H           1 MOL       0.0317
     43 H25       -13.9301  -31.2340  -14.7128 H           1 MOL       0.0815
     44 H26       -13.2551  -31.3390  -16.3424 H           1 MOL       0.0815
@<TRIPOS>BOND
     1     1    17   1
     2     1    16   1
     3    16    15   1
     4    15    14   1
     5    14    18   1
     6    14     8   1
     7     8    13   1
     8     8     9   1
     9     8     2   1
    10     2     7  ar
    11     2     3  ar
    12     3     4  ar
    13     4     5  ar
    14     5     6  ar
    15     6     7  ar
    16     9    10   1
    17    10    11   1
    18    11    12   1
    19    12    13   1
    20    18    17   1
    21     1    19   1
    22     1    20   1
    23     3    21   1
    24     4    22   1
    25     5    23   1
    26     6    24   1
    27     7    25   1
    28     9    26   1
    29     9    27   1
    30    10    28   1
    31    10    29   1
    32    11    30   1
    33    11    31   1
    34    12    32   1
    35    12    33   1
    36    13    34   1
    37    13    35   1
    38    14    36   1
    39    15    37   1
    40    15    38   1
    41    16    39   1
    42    16    40   1
    43    17    41   1
    44    17    42   1
    45    18    43   1
    46    18    44   1
@<TRIPOS>SUBSTRUCTURE
     1  MOL      1

