@<TRIPOS>MOLECULE
2pcp_ligand_004
    44    46
SMALL
GAST_HUCK
****
This file was generated by PARSER (from files_GN.cpp)

@<TRIPOS>ATOM
      1 CP        -11.5718  -27.5742  -16.6927 C.3         1 MOL      -0.0434
      2 CA         -7.8656  -26.5215  -13.3127 C.ar        1 MOL      -0.0018
      3 CB         -7.6823  -25.2441  -13.9196 C.ar        1 MOL      -0.0343
      4 CC         -7.7227  -24.0408  -13.1929 C.ar        1 MOL      -0.0322
      5 CD         -7.9287  -24.0673  -11.8103 C.ar        1 MOL      -0.0340
      6 CE         -8.0764  -25.3012  -11.1559 C.ar        1 MOL      -0.0322
      7 CF         -8.0404  -26.4939  -11.8917 C.ar        1 MOL      -0.0343
      8 CG         -7.8326  -27.8115  -14.1485 C.3         1 MOL      -0.0135
      9 CH         -6.4539  -27.9124  -14.9368 C.3         1 MOL      -0.0293
     10 CI         -6.1614  -29.2762  -15.6332 C.3         1 MOL      -0.0551
     11 CJ         -6.2051  -30.4616  -14.6411 C.3         1 MOL      -0.0541
     12 CK         -7.5607  -30.4580  -13.9027 C.3         1 MOL      -0.0551
     13 CL         -7.7709  -29.0909  -13.2012 C.3         1 MOL      -0.0293
     14 NM         -8.9943  -27.8768  -15.1599 N.4         1 MOL       0.1961
     15 CN        -10.2925  -28.4724  -14.6682 C.3         1 MOL      -0.0361
     16 CO        -11.2174  -28.8256  -15.8585 C.3         1 MOL      -0.0123
     17 CQ        -10.2876  -26.8246  -17.1211 C.3         1 MOL      -0.0123
     18 CR         -9.3172  -26.6111  -15.9316 C.3         1 MOL      -0.0361
     19 H1        -12.1305  -27.8689  -17.5870 H           1 MOL       0.0269
     20 H2        -12.2019  -26.9041  -16.0988 H           1 MOL       0.0269
     21 H3         -7.5372  -25.1580  -14.9248 H           1 MOL       0.0852
     22 H4         -7.5966  -23.1452  -13.6744 H           1 MOL       0.0698
     23 H5         -7.9633  -23.2048  -11.2683 H           1 MOL       0.0856
     24 H6         -8.2105  -25.3163  -10.1433 H           1 MOL       0.0698
     25 H7         -8.1467  -27.3498  -11.3546 H           1 MOL       0.0852
     26 H8         -5.6288  -27.7148  -14.2437 H           1 MOL       0.0227
     27 H9         -6.3775  -27.1605  -15.7186 H           1 MOL       0.0227
     28 H10        -5.1704  -29.2568  -16.0884 H           1 MOL       0.0260
     29 H11        -6.8863  -29.4579  -16.4274 H           1 MOL       0.0260
     30 H12        -5.3867  -30.3672  -13.9172 H           1 MOL       0.0265
     31 H13        -6.0814  -31.4077  -15.1743 H           1 MOL       0.0265
     32 H14        -7.5690  -31.2556  -13.1494 H           1 MOL       0.0260
     33 H15        -8.3778  -30.6412  -14.6113 H           1 MOL       0.0260
     34 H16        -8.6608  -29.1810  -12.5804 H           1 MOL       0.0227
     35 H17        -6.9524  -28.9460  -12.4936 H           1 MOL       0.0227
     36 H18        -8.6630  -28.5125  -15.8894 H           1 MOL       0.1993
     37 H19       -10.1478  -29.4271  -14.1662 H           1 MOL       0.0815
     38 H20       -10.7991  -27.7855  -13.9790 H           1 MOL       0.0815
     39 H21       -10.6952  -29.5466  -16.5012 H           1 MOL       0.0317
     40 H22       -12.1409  -29.2938  -15.4947 H           1 MOL       0.0317
     41 H23       -10.5612  -25.8468  -17.5297 H           1 MOL       0.0317
     42 H24        -9.7779  -27.3912  -17.9079 H           1 MOL       0.0317
     43 H25        -8.4111  -26.1805  -16.3621 H           1 MOL       0.0815
     44 H26        -9.7643  -25.8691  -15.2620 H           1 MOL       0.0815
@<TRIPOS>BOND
     1     1    17   1
     2     1    16   1
     3    16    15   1
     4    15    14   1
     5    14    18   1
     6    14     8   1
     7     8    13   1
     8     8     9   1
     9     8     2   1
    10     2     7  ar
    11     2     3  ar
    12     3     4  ar
    13     4     5  ar
    14     5     6  ar
    15     6     7  ar
    16     9    10   1
    17    10    11   1
    18    11    12   1
    19    12    13   1
    20    18    17   1
    21     1    19   1
    22     1    20   1
    23     3    21   1
    24     4    22   1
    25     5    23   1
    26     6    24   1
    27     7    25   1
    28     9    26   1
    29     9    27   1
    30    10    28   1
    31    10    29   1
    32    11    30   1
    33    11    31   1
    34    12    32   1
    35    12    33   1
    36    13    34   1
    37    13    35   1
    38    14    36   1
    39    15    37   1
    40    15    38   1
    41    16    39   1
    42    16    40   1
    43    17    41   1
    44    17    42   1
    45    18    43   1
    46    18    44   1
@<TRIPOS>SUBSTRUCTURE
     1  MOL      1

