@<TRIPOS>MOLECULE
2pcp_ligand_019
    44    46
SMALL
GAST_HUCK
****
This file was generated by PARSER (from files_GN.cpp)

@<TRIPOS>ATOM
      1 CP        -12.3355  -26.4702  -15.6092 C.3         1 MOL      -0.0434
      2 CA         -8.0591  -28.6659  -14.0403 C.ar        1 MOL      -0.0018
      3 CB         -6.8419  -28.1991  -14.6112 C.ar        1 MOL      -0.0343
      4 CC         -5.9437  -27.3765  -13.9011 C.ar        1 MOL      -0.0322
      5 CD         -6.2414  -26.9752  -12.5922 C.ar        1 MOL      -0.0340
      6 CE         -7.4326  -27.4100  -11.9917 C.ar        1 MOL      -0.0322
      7 CF         -8.3135  -28.2323  -12.7084 C.ar        1 MOL      -0.0343
      8 CG         -9.0882  -29.5231  -14.7845 C.3         1 MOL      -0.0135
      9 CH         -8.5233  -30.2192  -16.0968 C.3         1 MOL      -0.0293
     10 CI         -7.4203  -31.2947  -15.8910 C.3         1 MOL      -0.0551
     11 CJ         -7.8926  -32.4292  -14.9565 C.3         1 MOL      -0.0541
     12 CK         -8.4628  -31.8511  -13.6446 C.3         1 MOL      -0.0551
     13 CL         -9.5520  -30.7802  -13.9259 C.3         1 MOL      -0.0293
     14 NM        -10.3212  -28.6824  -15.1791 N.4         1 MOL       0.1961
     15 CN        -11.2114  -28.1706  -14.0691 C.3         1 MOL      -0.0361
     16 CO        -12.5583  -27.6042  -14.5840 C.3         1 MOL      -0.0123
     17 CQ        -11.3851  -26.9473  -16.7268 C.3         1 MOL      -0.0123
     18 CR        -10.0756  -27.5446  -16.1478 C.3         1 MOL      -0.0361
     19 H1        -13.2920  -26.1783  -16.0450 H           1 MOL       0.0269
     20 H2        -11.9096  -25.5965  -15.1077 H           1 MOL       0.0269
     21 H3         -6.5792  -28.4331  -15.5669 H           1 MOL       0.0852
     22 H4         -5.0785  -27.0571  -14.3423 H           1 MOL       0.0698
     23 H5         -5.6027  -26.3624  -12.0788 H           1 MOL       0.0856
     24 H6         -7.6575  -27.1232  -11.0359 H           1 MOL       0.0698
     25 H7         -9.1720  -28.4899  -12.2364 H           1 MOL       0.0852
     26 H8         -8.1109  -29.5030  -16.7987 H           1 MOL       0.0227
     27 H9         -9.3551  -30.6923  -16.6208 H           1 MOL       0.0227
     28 H10        -6.5222  -30.8363  -15.4732 H           1 MOL       0.0260
     29 H11        -7.1469  -31.7269  -16.8573 H           1 MOL       0.0260
     30 H12        -7.0544  -33.0927  -14.7299 H           1 MOL       0.0265
     31 H13        -8.6634  -33.0192  -15.4609 H           1 MOL       0.0265
     32 H14        -7.6562  -31.4125  -13.0526 H           1 MOL       0.0260
     33 H15        -8.8987  -32.6663  -13.0605 H           1 MOL       0.0260
     34 H16       -10.3876  -31.2711  -14.4365 H           1 MOL       0.0227
     35 H17        -9.9326  -30.4969  -12.9507 H           1 MOL       0.0227
     36 H18       -10.9160  -29.3361  -15.6944 H           1 MOL       0.1993
     37 H19       -11.4797  -28.9633  -13.3732 H           1 MOL       0.0815
     38 H20       -10.7107  -27.3840  -13.4987 H           1 MOL       0.0815
     39 H21       -13.1371  -28.4076  -15.0498 H           1 MOL       0.0317
     40 H22       -13.1418  -27.2189  -13.7435 H           1 MOL       0.0317
     41 H23       -11.1465  -26.1021  -17.3771 H           1 MOL       0.0317
     42 H24       -11.8904  -27.7078  -17.3290 H           1 MOL       0.0317
     43 H25        -9.5139  -27.8727  -17.0172 H           1 MOL       0.0815
     44 H26        -9.4998  -26.7496  -15.6642 H           1 MOL       0.0815
@<TRIPOS>BOND
     1     1    17   1
     2     1    16   1
     3    16    15   1
     4    15    14   1
     5    14    18   1
     6    14     8   1
     7     8    13   1
     8     8     9   1
     9     8     2   1
    10     2     7  ar
    11     2     3  ar
    12     3     4  ar
    13     4     5  ar
    14     5     6  ar
    15     6     7  ar
    16     9    10   1
    17    10    11   1
    18    11    12   1
    19    12    13   1
    20    18    17   1
    21     1    19   1
    22     1    20   1
    23     3    21   1
    24     4    22   1
    25     5    23   1
    26     6    24   1
    27     7    25   1
    28     9    26   1
    29     9    27   1
    30    10    28   1
    31    10    29   1
    32    11    30   1
    33    11    31   1
    34    12    32   1
    35    12    33   1
    36    13    34   1
    37    13    35   1
    38    14    36   1
    39    15    37   1
    40    15    38   1
    41    16    39   1
    42    16    40   1
    43    17    41   1
    44    17    42   1
    45    18    43   1
    46    18    44   1
@<TRIPOS>SUBSTRUCTURE
     1  MOL      1

