@<TRIPOS>MOLECULE
2pcp_ligand_061
    44    46
SMALL
GAST_HUCK
****
This file was generated by PARSER (from files_GN.cpp)

@<TRIPOS>ATOM
      1 CP        -11.8178  -28.3183  -13.4240 C.3         1 MOL      -0.0434
      2 CA         -7.7532  -25.6107  -12.0560 C.ar        1 MOL      -0.0018
      3 CB         -7.3898  -26.4343  -10.9567 C.ar        1 MOL      -0.0343
      4 CC         -7.2891  -25.9238   -9.6481 C.ar        1 MOL      -0.0322
      5 CD         -7.6777  -24.6013   -9.3764 C.ar        1 MOL      -0.0340
      6 CE         -8.0556  -23.7653  -10.4300 C.ar        1 MOL      -0.0322
      7 CF         -8.0793  -24.2591  -11.7435 C.ar        1 MOL      -0.0343
      8 CG         -7.8336  -26.1931  -13.4699 C.3         1 MOL      -0.0135
      9 CH         -7.7226  -25.0442  -14.5645 C.3         1 MOL      -0.0293
     10 CI         -7.5399  -25.5115  -16.0223 C.3         1 MOL      -0.0551
     11 CJ         -6.3041  -26.4122  -16.1592 C.3         1 MOL      -0.0541
     12 CK         -6.3910  -27.6036  -15.1881 C.3         1 MOL      -0.0551
     13 CL         -6.5294  -27.0647  -13.7374 C.3         1 MOL      -0.0293
     14 NM         -9.1582  -26.9419  -13.6835 N.4         1 MOL       0.1961
     15 CN         -9.2582  -28.3804  -13.2242 C.3         1 MOL      -0.0361
     16 CO        -10.5200  -29.0717  -13.8090 C.3         1 MOL      -0.0123
     17 CQ        -11.7010  -26.8183  -13.7809 C.3         1 MOL      -0.0123
     18 CR        -10.3949  -26.2128  -13.2098 C.3         1 MOL      -0.0361
     19 H1        -12.6687  -28.7496  -13.9601 H           1 MOL       0.0269
     20 H2        -12.0081  -28.4300  -12.3503 H           1 MOL       0.0269
     21 H3         -7.1963  -27.4267  -11.0787 H           1 MOL       0.0852
     22 H4         -6.9441  -26.5277   -8.9021 H           1 MOL       0.0698
     23 H5         -7.6629  -24.2369   -8.4188 H           1 MOL       0.0856
     24 H6         -8.2998  -22.7925  -10.2427 H           1 MOL       0.0698
     25 H7         -8.3688  -23.5997  -12.4648 H           1 MOL       0.0852
     26 H8         -6.8700  -24.4002  -14.3248 H           1 MOL       0.0227
     27 H9         -8.6006  -24.4069  -14.5695 H           1 MOL       0.0227
     28 H10        -7.3826  -24.6385  -16.6589 H           1 MOL       0.0260
     29 H11        -8.4364  -26.0377  -16.3721 H           1 MOL       0.0260
     30 H12        -5.4063  -25.8209  -15.9406 H           1 MOL       0.0265
     31 H13        -6.2484  -26.7686  -17.1845 H           1 MOL       0.0265
     32 H14        -5.4835  -28.2054  -15.2627 H           1 MOL       0.0260
     33 H15        -7.2430  -28.2269  -15.4608 H           1 MOL       0.0260
     34 H16        -6.4801  -27.9377  -13.0823 H           1 MOL       0.0227
     35 H17        -5.6405  -26.4610  -13.5193 H           1 MOL       0.0227
     36 H18        -9.2566  -26.9978  -14.6996 H           1 MOL       0.1993
     37 H19        -8.4138  -28.9735  -13.5709 H           1 MOL       0.0815
     38 H20        -9.2685  -28.4292  -12.1320 H           1 MOL       0.0815
     39 H21       -10.4307  -29.1060  -14.9014 H           1 MOL       0.0317
     40 H22       -10.5767  -30.1014  -13.4413 H           1 MOL       0.0317
     41 H23       -12.5645  -26.2854  -13.3734 H           1 MOL       0.0317
     42 H24       -11.7099  -26.6998  -14.8698 H           1 MOL       0.0317
     43 H25       -10.3830  -25.1753  -13.5184 H           1 MOL       0.0815
     44 H26       -10.4597  -26.2043  -12.1184 H           1 MOL       0.0815
@<TRIPOS>BOND
     1     1    17   1
     2     1    16   1
     3    16    15   1
     4    15    14   1
     5    14    18   1
     6    14     8   1
     7     8    13   1
     8     8     9   1
     9     8     2   1
    10     2     7  ar
    11     2     3  ar
    12     3     4  ar
    13     4     5  ar
    14     5     6  ar
    15     6     7  ar
    16     9    10   1
    17    10    11   1
    18    11    12   1
    19    12    13   1
    20    18    17   1
    21     1    19   1
    22     1    20   1
    23     3    21   1
    24     4    22   1
    25     5    23   1
    26     6    24   1
    27     7    25   1
    28     9    26   1
    29     9    27   1
    30    10    28   1
    31    10    29   1
    32    11    30   1
    33    11    31   1
    34    12    32   1
    35    12    33   1
    36    13    34   1
    37    13    35   1
    38    14    36   1
    39    15    37   1
    40    15    38   1
    41    16    39   1
    42    16    40   1
    43    17    41   1
    44    17    42   1
    45    18    43   1
    46    18    44   1
@<TRIPOS>SUBSTRUCTURE
     1  MOL      1

