@<TRIPOS>MOLECULE
2pcp_ligand_044
    44    46
SMALL
GAST_HUCK
****
This file was generated by PARSER (from files_GN.cpp)

@<TRIPOS>ATOM
      1 CP         -9.1465  -29.9082  -15.1349 C.3         1 MOL      -0.0434
      2 CA         -6.6868  -25.8929  -12.7634 C.ar        1 MOL      -0.0018
      3 CB         -7.0609  -24.7320  -13.5010 C.ar        1 MOL      -0.0343
      4 CC         -7.7455  -23.6525  -12.9134 C.ar        1 MOL      -0.0322
      5 CD         -8.1568  -23.7318  -11.5790 C.ar        1 MOL      -0.0340
      6 CE         -7.8750  -24.8805  -10.8324 C.ar        1 MOL      -0.0322
      7 CF         -7.1448  -25.9374  -11.4143 C.ar        1 MOL      -0.0343
      8 CG         -6.0009  -27.1001  -13.4161 C.3         1 MOL      -0.0135
      9 CH         -5.0098  -26.6065  -14.5591 C.3         1 MOL      -0.0293
     10 CI         -3.8647  -25.6612  -14.0775 C.3         1 MOL      -0.0551
     11 CJ         -2.9766  -26.3609  -13.0267 C.3         1 MOL      -0.0541
     12 CK         -3.8292  -26.9493  -11.8851 C.3         1 MOL      -0.0551
     13 CL         -4.9955  -27.8190  -12.4318 C.3         1 MOL      -0.0293
     14 NM         -6.9993  -28.2278  -13.8074 N.4         1 MOL       0.1961
     15 CN         -8.4735  -27.9891  -13.5982 C.3         1 MOL      -0.0361
     16 CO         -9.3460  -29.2627  -13.7507 C.3         1 MOL      -0.0123
     17 CQ         -7.6455  -30.1748  -15.3731 C.3         1 MOL      -0.0123
     18 CR         -6.7758  -28.9055  -15.1333 C.3         1 MOL      -0.0361
     19 H1         -9.6995  -30.8476  -15.1787 H           1 MOL       0.0269
     20 H2         -9.5416  -29.2504  -15.9108 H           1 MOL       0.0269
     21 H3         -6.8197  -24.6233  -14.4848 H           1 MOL       0.0852
     22 H4         -7.9622  -22.8172  -13.4658 H           1 MOL       0.0698
     23 H5         -8.6753  -22.9634  -11.1554 H           1 MOL       0.0856
     24 H6         -8.2084  -24.9551   -9.8667 H           1 MOL       0.0698
     25 H7         -6.9956  -26.7562  -10.8331 H           1 MOL       0.0852
     26 H8         -5.5427  -26.1416  -15.3885 H           1 MOL       0.0227
     27 H9         -4.5065  -27.4642  -15.0059 H           1 MOL       0.0227
     28 H10        -4.2713  -24.7450  -13.6548 H           1 MOL       0.0260
     29 H11        -3.2377  -25.3781  -14.9219 H           1 MOL       0.0260
     30 H12        -2.2603  -25.6576  -12.6025 H           1 MOL       0.0265
     31 H13        -2.4106  -27.1616  -13.5095 H           1 MOL       0.0265
     32 H14        -4.2256  -26.1403  -11.2669 H           1 MOL       0.0260
     33 H15        -3.1774  -27.5592  -11.2560 H           1 MOL       0.0260
     34 H16        -4.5436  -28.6851  -12.9270 H           1 MOL       0.0227
     35 H17        -5.5278  -28.2269  -11.5816 H           1 MOL       0.0227
     36 H18        -6.7986  -28.9742  -13.1336 H           1 MOL       0.1993
     37 H19        -8.6599  -27.6542  -12.5810 H           1 MOL       0.0815
     38 H20        -8.8320  -27.2114  -14.2773 H           1 MOL       0.0815
     39 H21        -9.0726  -29.9827  -12.9711 H           1 MOL       0.0317
     40 H22       -10.4014  -29.0063  -13.6117 H           1 MOL       0.0317
     41 H23        -7.5079  -30.5277  -16.3974 H           1 MOL       0.0317
     42 H24        -7.3133  -30.9687  -14.6968 H           1 MOL       0.0317
     43 H25        -5.7401  -29.2419  -15.1997 H           1 MOL       0.0815
     44 H26        -6.9553  -28.1948  -15.9414 H           1 MOL       0.0815
@<TRIPOS>BOND
     1     1    17   1
     2     1    16   1
     3    16    15   1
     4    15    14   1
     5    14    18   1
     6    14     8   1
     7     8    13   1
     8     8     9   1
     9     8     2   1
    10     2     7  ar
    11     2     3  ar
    12     3     4  ar
    13     4     5  ar
    14     5     6  ar
    15     6     7  ar
    16     9    10   1
    17    10    11   1
    18    11    12   1
    19    12    13   1
    20    18    17   1
    21     1    19   1
    22     1    20   1
    23     3    21   1
    24     4    22   1
    25     5    23   1
    26     6    24   1
    27     7    25   1
    28     9    26   1
    29     9    27   1
    30    10    28   1
    31    10    29   1
    32    11    30   1
    33    11    31   1
    34    12    32   1
    35    12    33   1
    36    13    34   1
    37    13    35   1
    38    14    36   1
    39    15    37   1
    40    15    38   1
    41    16    39   1
    42    16    40   1
    43    17    41   1
    44    17    42   1
    45    18    43   1
    46    18    44   1
@<TRIPOS>SUBSTRUCTURE
     1  MOL      1

