@<TRIPOS>MOLECULE
2pcp_ligand_050
    44    46
SMALL
GAST_HUCK
****
This file was generated by PARSER (from files_GN.cpp)

@<TRIPOS>ATOM
      1 CP         -4.5774  -26.6434  -13.2192 C.3         1 MOL      -0.0434
      2 CA         -9.9172  -27.0060  -13.7321 C.ar        1 MOL      -0.0018
      3 CB         -9.8827  -25.9854  -12.7429 C.ar        1 MOL      -0.0343
      4 CC        -10.9927  -25.7159  -11.9087 C.ar        1 MOL      -0.0322
      5 CD        -12.1563  -26.4976  -12.0095 C.ar        1 MOL      -0.0340
      6 CE        -12.2211  -27.5367  -12.9222 C.ar        1 MOL      -0.0322
      7 CF        -11.1191  -27.7693  -13.7652 C.ar        1 MOL      -0.0343
      8 CG         -8.8100  -27.1941  -14.7795 C.3         1 MOL      -0.0135
      9 CH         -8.8659  -28.6466  -15.4319 C.3         1 MOL      -0.0293
     10 CI         -9.8686  -28.9945  -16.5773 C.3         1 MOL      -0.0551
     11 CJ        -10.2088  -27.8322  -17.5489 C.3         1 MOL      -0.0541
     12 CK        -10.2598  -26.4243  -16.9150 C.3         1 MOL      -0.0551
     13 CL         -9.0804  -26.1668  -15.9501 C.3         1 MOL      -0.0293
     14 NM         -7.3410  -26.9856  -14.3198 N.4         1 MOL       0.1961
     15 CN         -6.8176  -25.6134  -13.9106 C.3         1 MOL      -0.0361
     16 CO         -5.2688  -25.5172  -14.0250 C.3         1 MOL      -0.0123
     17 CQ         -5.1889  -28.0226  -13.5568 C.3         1 MOL      -0.0123
     18 CR         -6.7385  -28.0237  -13.4071 C.3         1 MOL      -0.0361
     19 H1         -3.5030  -26.6568  -13.4347 H           1 MOL       0.0269
     20 H2         -4.7090  -26.4452  -12.1514 H           1 MOL       0.0269
     21 H3         -9.0683  -25.4070  -12.6117 H           1 MOL       0.0852
     22 H4        -10.9539  -24.9523  -11.2300 H           1 MOL       0.0698
     23 H5        -12.9623  -26.3088  -11.4156 H           1 MOL       0.0856
     24 H6        -13.0682  -28.1087  -13.0094 H           1 MOL       0.0698
     25 H7        -11.2588  -28.5037  -14.4436 H           1 MOL       0.0852
     26 H8         -9.0349  -29.3795  -14.6350 H           1 MOL       0.0227
     27 H9         -7.8820  -28.8661  -15.8393 H           1 MOL       0.0227
     28 H10       -10.7907  -29.4274  -16.1747 H           1 MOL       0.0260
     29 H11        -9.4244  -29.8019  -17.1732 H           1 MOL       0.0260
     30 H12       -11.1651  -28.0330  -18.0391 H           1 MOL       0.0265
     31 H13        -9.4554  -27.8133  -18.3354 H           1 MOL       0.0265
     32 H14       -11.2177  -26.2681  -16.4141 H           1 MOL       0.0260
     33 H15       -10.2167  -25.6874  -17.7232 H           1 MOL       0.0260
     34 H16        -8.1858  -26.1119  -16.5716 H           1 MOL       0.0227
     35 H17        -9.2397  -25.1722  -15.5212 H           1 MOL       0.0227
     36 H18        -6.8320  -27.1458  -15.1898 H           1 MOL       0.1993
     37 H19        -7.1957  -24.8138  -14.5389 H           1 MOL       0.0815
     38 H20        -7.0882  -25.3620  -12.8903 H           1 MOL       0.0815
     39 H21        -4.9712  -25.5892  -15.0729 H           1 MOL       0.0317
     40 H22        -4.9117  -24.5511  -13.6647 H           1 MOL       0.0317
     41 H23        -4.7390  -28.7754  -12.9058 H           1 MOL       0.0317
     42 H24        -4.9335  -28.2843  -14.5865 H           1 MOL       0.0317
     43 H25        -7.0811  -29.0228  -13.6599 H           1 MOL       0.0815
     44 H26        -7.0124  -27.8447  -12.3643 H           1 MOL       0.0815
@<TRIPOS>BOND
     1     1    17   1
     2     1    16   1
     3    16    15   1
     4    15    14   1
     5    14    18   1
     6    14     8   1
     7     8    13   1
     8     8     9   1
     9     8     2   1
    10     2     7  ar
    11     2     3  ar
    12     3     4  ar
    13     4     5  ar
    14     5     6  ar
    15     6     7  ar
    16     9    10   1
    17    10    11   1
    18    11    12   1
    19    12    13   1
    20    18    17   1
    21     1    19   1
    22     1    20   1
    23     3    21   1
    24     4    22   1
    25     5    23   1
    26     6    24   1
    27     7    25   1
    28     9    26   1
    29     9    27   1
    30    10    28   1
    31    10    29   1
    32    11    30   1
    33    11    31   1
    34    12    32   1
    35    12    33   1
    36    13    34   1
    37    13    35   1
    38    14    36   1
    39    15    37   1
    40    15    38   1
    41    16    39   1
    42    16    40   1
    43    17    41   1
    44    17    42   1
    45    18    43   1
    46    18    44   1
@<TRIPOS>SUBSTRUCTURE
     1  MOL      1

