@<TRIPOS>MOLECULE
2pcp_ligand_052
    44    46
SMALL
GAST_HUCK
****
This file was generated by PARSER (from files_GN.cpp)

@<TRIPOS>ATOM
      1 CP         -8.6121  -24.6891  -10.7563 C.3         1 MOL      -0.0434
      2 CA         -6.3095  -27.1845  -14.4228 C.ar        1 MOL      -0.0018
      3 CB         -5.2695  -26.2220  -14.5886 C.ar        1 MOL      -0.0343
      4 CC         -3.9376  -26.4964  -14.2379 C.ar        1 MOL      -0.0322
      5 CD         -3.5941  -27.7473  -13.6955 C.ar        1 MOL      -0.0340
      6 CE         -4.5992  -28.7085  -13.4929 C.ar        1 MOL      -0.0322
      7 CF         -5.9336  -28.4415  -13.8627 C.ar        1 MOL      -0.0343
      8 CG         -7.7905  -26.8292  -14.6285 C.3         1 MOL      -0.0135
      9 CH         -8.0234  -26.0250  -15.9773 C.3         1 MOL      -0.0293
     10 CI         -9.4907  -25.8931  -16.4731 C.3         1 MOL      -0.0551
     11 CJ        -10.1530  -27.2685  -16.6824 C.3         1 MOL      -0.0541
     12 CK        -10.0627  -28.1038  -15.3914 C.3         1 MOL      -0.0551
     13 CL         -8.5984  -28.1877  -14.8458 C.3         1 MOL      -0.0293
     14 NM         -8.2703  -25.9226  -13.4783 N.4         1 MOL       0.1961
     15 CN         -9.1224  -26.5536  -12.4004 C.3         1 MOL      -0.0361
     16 CO         -9.7357  -25.4799  -11.4692 C.3         1 MOL      -0.0123
     17 CQ         -7.7099  -24.0237  -11.8140 C.3         1 MOL      -0.0123
     18 CR         -7.1929  -25.0641  -12.8306 C.3         1 MOL      -0.0361
     19 H1         -9.0333  -23.9259  -10.1035 H           1 MOL       0.0269
     20 H2         -8.0113  -25.3724  -10.1376 H           1 MOL       0.0269
     21 H3         -5.4689  -25.2883  -14.9556 H           1 MOL       0.0852
     22 H4         -3.2153  -25.7819  -14.3672 H           1 MOL       0.0698
     23 H5         -2.6225  -27.9441  -13.4330 H           1 MOL       0.0856
     24 H6         -4.3468  -29.6168  -13.0893 H           1 MOL       0.0698
     25 H7         -6.6449  -29.1641  -13.6540 H           1 MOL       0.0852
     26 H8         -7.4544  -26.5114  -16.7772 H           1 MOL       0.0227
     27 H9         -7.6324  -25.0075  -15.8861 H           1 MOL       0.0227
     28 H10        -9.4997  -25.3642  -17.4299 H           1 MOL       0.0260
     29 H11       -10.0663  -25.3033  -15.7511 H           1 MOL       0.0260
     30 H12        -9.6491  -27.7947  -17.5022 H           1 MOL       0.0265
     31 H13       -11.2031  -27.1220  -16.9580 H           1 MOL       0.0265
     32 H14       -10.4244  -29.1210  -15.6089 H           1 MOL       0.0260
     33 H15       -10.7445  -27.6665  -14.6454 H           1 MOL       0.0260
     34 H16        -8.6552  -28.7663  -13.9238 H           1 MOL       0.0227
     35 H17        -8.0529  -28.8150  -15.5589 H           1 MOL       0.0227
     36 H18        -8.9156  -25.2467  -13.9071 H           1 MOL       0.1993
     37 H19        -9.9806  -27.0754  -12.8329 H           1 MOL       0.0815
     38 H20        -8.5388  -27.2793  -11.8143 H           1 MOL       0.0815
     39 H21       -10.3592  -24.7866  -12.0492 H           1 MOL       0.0317
     40 H22       -10.3719  -25.9439  -10.7161 H           1 MOL       0.0317
     41 H23        -6.8466  -23.5762  -11.3056 H           1 MOL       0.0317
     42 H24        -8.2433  -23.2244  -12.3440 H           1 MOL       0.0317
     43 H25        -6.6421  -24.5166  -13.6022 H           1 MOL       0.0815
     44 H26        -6.4875  -25.7054  -12.2879 H           1 MOL       0.0815
@<TRIPOS>BOND
     1     1    17   1
     2     1    16   1
     3    16    15   1
     4    15    14   1
     5    14    18   1
     6    14     8   1
     7     8    13   1
     8     8     9   1
     9     8     2   1
    10     2     7  ar
    11     2     3  ar
    12     3     4  ar
    13     4     5  ar
    14     5     6  ar
    15     6     7  ar
    16     9    10   1
    17    10    11   1
    18    11    12   1
    19    12    13   1
    20    18    17   1
    21     1    19   1
    22     1    20   1
    23     3    21   1
    24     4    22   1
    25     5    23   1
    26     6    24   1
    27     7    25   1
    28     9    26   1
    29     9    27   1
    30    10    28   1
    31    10    29   1
    32    11    30   1
    33    11    31   1
    34    12    32   1
    35    12    33   1
    36    13    34   1
    37    13    35   1
    38    14    36   1
    39    15    37   1
    40    15    38   1
    41    16    39   1
    42    16    40   1
    43    17    41   1
    44    17    42   1
    45    18    43   1
    46    18    44   1
@<TRIPOS>SUBSTRUCTURE
     1  MOL      1

