@<TRIPOS>MOLECULE
2pcp_ligand_043
    44    46
SMALL
GAST_HUCK
****
This file was generated by PARSER (from files_GN.cpp)

@<TRIPOS>ATOM
      1 CP        -11.2603  -37.5482  -16.9108 C.3         1 MOL      -0.0434
      2 CA         -9.3491  -34.5735  -12.9273 C.ar        1 MOL      -0.0018
      3 CB        -10.0181  -35.4554  -12.0231 C.ar        1 MOL      -0.0343
      4 CC         -9.3710  -36.0388  -10.9178 C.ar        1 MOL      -0.0322
      5 CD         -8.0260  -35.7405  -10.6485 C.ar        1 MOL      -0.0340
      6 CE         -7.3485  -34.8315  -11.4748 C.ar        1 MOL      -0.0322
      7 CF         -7.9923  -34.2760  -12.5969 C.ar        1 MOL      -0.0343
      8 CG        -10.0604  -34.0758  -14.1942 C.3         1 MOL      -0.0135
      9 CH        -11.3860  -33.3080  -13.7828 C.3         1 MOL      -0.0293
     10 CI        -11.1800  -31.9498  -13.0617 C.3         1 MOL      -0.0551
     11 CJ        -10.4088  -30.9555  -13.9545 C.3         1 MOL      -0.0541
     12 CK         -9.0577  -31.5588  -14.3831 C.3         1 MOL      -0.0551
     13 CL         -9.2229  -32.9812  -14.9927 C.3         1 MOL      -0.0293
     14 NM        -10.3196  -35.3491  -15.0549 N.4         1 MOL       0.1961
     15 CN        -10.0265  -35.3344  -16.5440 C.3         1 MOL      -0.0361
     16 CO         -9.9698  -36.7465  -17.1825 C.3         1 MOL      -0.0123
     17 CQ        -11.5916  -37.5196  -15.4018 C.3         1 MOL      -0.0123
     18 CR        -11.6462  -36.0575  -14.8848 C.3         1 MOL      -0.0361
     19 H1        -12.0880  -37.1112  -17.4760 H           1 MOL       0.0269
     20 H2        -11.1323  -38.5810  -17.2473 H           1 MOL       0.0269
     21 H3        -10.9931  -35.7176  -12.1656 H           1 MOL       0.0852
     22 H4         -9.8794  -36.6911  -10.3146 H           1 MOL       0.0698
     23 H5         -7.5460  -36.1830   -9.8595 H           1 MOL       0.0856
     24 H6         -6.3667  -34.6074  -11.2896 H           1 MOL       0.0698
     25 H7         -7.4082  -33.6940  -13.1933 H           1 MOL       0.0852
     26 H8        -12.0116  -33.9046  -13.1170 H           1 MOL       0.0227
     27 H9        -11.9764  -33.1196  -14.6844 H           1 MOL       0.0227
     28 H10       -10.6318  -32.1091  -12.1284 H           1 MOL       0.0260
     29 H11       -12.1523  -31.5200  -12.8125 H           1 MOL       0.0260
     30 H12       -10.2383  -30.0279  -13.4037 H           1 MOL       0.0265
     31 H13       -11.0005  -30.7221  -14.8439 H           1 MOL       0.0265
     32 H14        -8.3901  -31.5718  -13.5216 H           1 MOL       0.0260
     33 H15        -8.6016  -30.9067  -15.1332 H           1 MOL       0.0260
     34 H16        -9.7143  -32.8141  -15.9484 H           1 MOL       0.0227
     35 H17        -8.2256  -33.3551  -15.2232 H           1 MOL       0.0227
     36 H18        -9.6317  -36.0184  -14.7034 H           1 MOL       0.1993
     37 H19       -10.7789  -34.7424  -17.0691 H           1 MOL       0.0815
     38 H20        -9.0538  -34.8937  -16.7504 H           1 MOL       0.0815
     39 H21        -9.8162  -36.6535  -18.2611 H           1 MOL       0.0317
     40 H22        -9.1131  -37.2911  -16.7663 H           1 MOL       0.0317
     41 H23       -10.8268  -38.0742  -14.8536 H           1 MOL       0.0317
     42 H24       -12.5519  -38.0099  -15.2258 H           1 MOL       0.0317
     43 H25       -12.4477  -35.5154  -15.4086 H           1 MOL       0.0815
     44 H26       -11.9307  -36.1271  -13.8351 H           1 MOL       0.0815
@<TRIPOS>BOND
     1     1    17   1
     2     1    16   1
     3    16    15   1
     4    15    14   1
     5    14    18   1
     6    14     8   1
     7     8    13   1
     8     8     9   1
     9     8     2   1
    10     2     7  ar
    11     2     3  ar
    12     3     4  ar
    13     4     5  ar
    14     5     6  ar
    15     6     7  ar
    16     9    10   1
    17    10    11   1
    18    11    12   1
    19    12    13   1
    20    18    17   1
    21     1    19   1
    22     1    20   1
    23     3    21   1
    24     4    22   1
    25     5    23   1
    26     6    24   1
    27     7    25   1
    28     9    26   1
    29     9    27   1
    30    10    28   1
    31    10    29   1
    32    11    30   1
    33    11    31   1
    34    12    32   1
    35    12    33   1
    36    13    34   1
    37    13    35   1
    38    14    36   1
    39    15    37   1
    40    15    38   1
    41    16    39   1
    42    16    40   1
    43    17    41   1
    44    17    42   1
    45    18    43   1
    46    18    44   1
@<TRIPOS>SUBSTRUCTURE
     1  MOL      1

