@<TRIPOS>MOLECULE
2pcp_ligand_034
    44    46
SMALL
GAST_HUCK
****
This file was generated by PARSER (from files_GN.cpp)

@<TRIPOS>ATOM
      1 CP         -7.3735  -32.2097  -13.4371 C.3         1 MOL      -0.0434
      2 CA         -8.5564  -27.2090  -13.3719 C.ar        1 MOL      -0.0018
      3 CB         -9.5989  -26.3862  -12.8575 C.ar        1 MOL      -0.0343
      4 CC         -9.4040  -25.5651  -11.7327 C.ar        1 MOL      -0.0322
      5 CD         -8.1784  -25.5778  -11.0488 C.ar        1 MOL      -0.0340
      6 CE         -7.1457  -26.4105  -11.5053 C.ar        1 MOL      -0.0322
      7 CF         -7.3361  -27.2123  -12.6419 C.ar        1 MOL      -0.0343
      8 CG         -8.6940  -28.0575  -14.6376 C.3         1 MOL      -0.0135
      9 CH        -10.1511  -28.1256  -15.2806 C.3         1 MOL      -0.0293
     10 CI        -10.7191  -26.8385  -15.9596 C.3         1 MOL      -0.0551
     11 CJ         -9.7199  -26.2175  -16.9623 C.3         1 MOL      -0.0541
     12 CK         -8.3443  -26.0219  -16.2837 C.3         1 MOL      -0.0551
     13 CL         -7.8070  -27.3785  -15.7553 C.3         1 MOL      -0.0293
     14 NM         -8.3068  -29.5371  -14.4133 N.4         1 MOL       0.1961
     15 CN         -6.8868  -30.0045  -14.6429 C.3         1 MOL      -0.0361
     16 CO         -6.7958  -31.5524  -14.7138 C.3         1 MOL      -0.0123
     17 CQ         -8.8003  -31.6875  -13.1504 C.3         1 MOL      -0.0123
     18 CR         -8.8367  -30.1404  -13.1397 C.3         1 MOL      -0.0361
     19 H1         -7.3905  -33.2969  -13.5635 H           1 MOL       0.0269
     20 H2         -6.7232  -31.9856  -12.5849 H           1 MOL       0.0269
     21 H3        -10.5234  -26.3693  -13.2758 H           1 MOL       0.0852
     22 H4        -10.1690  -24.9767  -11.3931 H           1 MOL       0.0698
     23 H5         -8.0512  -25.0025  -10.2108 H           1 MOL       0.0856
     24 H6         -6.2521  -26.4310  -11.0062 H           1 MOL       0.0698
     25 H7         -6.5528  -27.7917  -12.9381 H           1 MOL       0.0852
     26 H8        -10.8782  -28.4469  -14.5342 H           1 MOL       0.0227
     27 H9        -10.1595  -28.8947  -16.0583 H           1 MOL       0.0227
     28 H10       -10.9851  -26.0886  -15.2094 H           1 MOL       0.0260
     29 H11       -11.6359  -27.1003  -16.5064 H           1 MOL       0.0260
     30 H12       -10.1056  -25.2574  -17.3138 H           1 MOL       0.0265
     31 H13        -9.6133  -26.8738  -17.8293 H           1 MOL       0.0265
     32 H14        -8.4347  -25.3024  -15.4593 H           1 MOL       0.0260
     33 H15        -7.6360  -25.6107  -17.0080 H           1 MOL       0.0260
     34 H16        -7.7423  -28.0489  -16.6173 H           1 MOL       0.0227
     35 H17        -6.7784  -27.2180  -15.4204 H           1 MOL       0.0227
     36 H18        -8.8136  -30.0397  -15.1465 H           1 MOL       0.1993
     37 H19        -6.4984  -29.6409  -15.5950 H           1 MOL       0.0815
     38 H20        -6.2206  -29.6428  -13.8599 H           1 MOL       0.0815
     39 H21        -7.3527  -31.9059  -15.5835 H           1 MOL       0.0317
     40 H22        -5.7510  -31.8523  -14.8375 H           1 MOL       0.0317
     41 H23        -9.1356  -32.0726  -12.1857 H           1 MOL       0.0317
     42 H24        -9.4787  -32.0621  -13.9194 H           1 MOL       0.0317
     43 H25        -9.8751  -29.8485  -12.9872 H           1 MOL       0.0815
     44 H26        -8.2633  -29.7774  -12.2815 H           1 MOL       0.0815
@<TRIPOS>BOND
     1     1    17   1
     2     1    16   1
     3    16    15   1
     4    15    14   1
     5    14    18   1
     6    14     8   1
     7     8    13   1
     8     8     9   1
     9     8     2   1
    10     2     7  ar
    11     2     3  ar
    12     3     4  ar
    13     4     5  ar
    14     5     6  ar
    15     6     7  ar
    16     9    10   1
    17    10    11   1
    18    11    12   1
    19    12    13   1
    20    18    17   1
    21     1    19   1
    22     1    20   1
    23     3    21   1
    24     4    22   1
    25     5    23   1
    26     6    24   1
    27     7    25   1
    28     9    26   1
    29     9    27   1
    30    10    28   1
    31    10    29   1
    32    11    30   1
    33    11    31   1
    34    12    32   1
    35    12    33   1
    36    13    34   1
    37    13    35   1
    38    14    36   1
    39    15    37   1
    40    15    38   1
    41    16    39   1
    42    16    40   1
    43    17    41   1
    44    17    42   1
    45    18    43   1
    46    18    44   1
@<TRIPOS>SUBSTRUCTURE
     1  MOL      1

