@<TRIPOS>MOLECULE
2pcp_ligand_005
    44    46
SMALL
GAST_HUCK
****
This file was generated by PARSER (from files_GN.cpp)

@<TRIPOS>ATOM
      1 CP        -10.2391  -37.1642   -4.6941 C.3         1 MOL      -0.0434
      2 CA        -10.9565  -35.6823   -9.6690 C.ar        1 MOL      -0.0018
      3 CB        -10.3416  -34.4417   -9.3319 C.ar        1 MOL      -0.0343
      4 CC        -10.8890  -33.1990   -9.6915 C.ar        1 MOL      -0.0322
      5 CD        -12.1127  -33.1477  -10.3781 C.ar        1 MOL      -0.0340
      6 CE        -12.7810  -34.3395  -10.6893 C.ar        1 MOL      -0.0322
      7 CF        -12.2182  -35.5780  -10.3341 C.ar        1 MOL      -0.0343
      8 CG        -10.2836  -36.9977   -9.2305 C.3         1 MOL      -0.0135
      9 CH        -11.0920  -38.2779   -9.7013 C.3         1 MOL      -0.0293
     10 CI        -10.3371  -39.6281   -9.8531 C.3         1 MOL      -0.0551
     11 CJ         -9.0835  -39.4782  -10.7434 C.3         1 MOL      -0.0541
     12 CK         -8.1425  -38.3656  -10.2337 C.3         1 MOL      -0.0551
     13 CL         -8.8898  -37.0200   -9.9986 C.3         1 MOL      -0.0293
     14 NM        -10.0863  -36.9385   -7.6968 N.4         1 MOL       0.1961
     15 CN        -11.1669  -36.2435   -6.8882 C.3         1 MOL      -0.0361
     16 CO        -10.6699  -35.8941   -5.4601 C.3         1 MOL      -0.0123
     17 CQ         -9.2272  -37.9871   -5.5222 C.3         1 MOL      -0.0123
     18 CR         -9.7416  -38.2138   -6.9676 C.3         1 MOL      -0.0361
     19 H1         -9.7917  -36.8795   -3.7387 H           1 MOL       0.0269
     20 H2        -11.1229  -37.7758   -4.4857 H           1 MOL       0.0269
     21 H3         -9.4782  -34.4326   -8.7887 H           1 MOL       0.0852
     22 H4        -10.4077  -32.3289   -9.4423 H           1 MOL       0.0698
     23 H5        -12.5225  -32.2451  -10.6328 H           1 MOL       0.0856
     24 H6        -13.6901  -34.3037  -11.1610 H           1 MOL       0.0698
     25 H7        -12.7842  -36.4006  -10.5393 H           1 MOL       0.0852
     26 H8        -11.4760  -38.1002  -10.7090 H           1 MOL       0.0227
     27 H9        -11.9501  -38.4258   -9.0458 H           1 MOL       0.0227
     28 H10       -11.0068  -40.3577  -10.3192 H           1 MOL       0.0260
     29 H11       -10.0498  -40.0447   -8.8939 H           1 MOL       0.0260
     30 H12        -9.3879  -39.2448  -11.7663 H           1 MOL       0.0265
     31 H13        -8.5400  -40.4269  -10.7635 H           1 MOL       0.0265
     32 H14        -7.3560  -38.2067  -10.9768 H           1 MOL       0.0260
     33 H15        -7.6248  -38.6956   -9.3355 H           1 MOL       0.0260
     34 H16        -8.1856  -36.3543   -9.4915 H           1 MOL       0.0227
     35 H17        -9.0375  -36.6058  -11.0027 H           1 MOL       0.0227
     36 H18        -9.2409  -36.3710   -7.5785 H           1 MOL       0.1993
     37 H19       -11.4699  -35.2951   -7.3256 H           1 MOL       0.0815
     38 H20       -12.0673  -36.8681   -6.8307 H           1 MOL       0.0815
     39 H21        -9.8234  -35.2057   -5.5327 H           1 MOL       0.0317
     40 H22       -11.4680  -35.3915   -4.9066 H           1 MOL       0.0317
     41 H23        -9.0663  -38.9526   -5.0328 H           1 MOL       0.0317
     42 H24        -8.2671  -37.4649   -5.5511 H           1 MOL       0.0317
     43 H25        -8.9491  -38.7497   -7.4663 H           1 MOL       0.0815
     44 H26       -10.6112  -38.8698   -6.9106 H           1 MOL       0.0815
@<TRIPOS>BOND
     1     1    17   1
     2     1    16   1
     3    16    15   1
     4    15    14   1
     5    14    18   1
     6    14     8   1
     7     8    13   1
     8     8     9   1
     9     8     2   1
    10     2     7  ar
    11     2     3  ar
    12     3     4  ar
    13     4     5  ar
    14     5     6  ar
    15     6     7  ar
    16     9    10   1
    17    10    11   1
    18    11    12   1
    19    12    13   1
    20    18    17   1
    21     1    19   1
    22     1    20   1
    23     3    21   1
    24     4    22   1
    25     5    23   1
    26     6    24   1
    27     7    25   1
    28     9    26   1
    29     9    27   1
    30    10    28   1
    31    10    29   1
    32    11    30   1
    33    11    31   1
    34    12    32   1
    35    12    33   1
    36    13    34   1
    37    13    35   1
    38    14    36   1
    39    15    37   1
    40    15    38   1
    41    16    39   1
    42    16    40   1
    43    17    41   1
    44    17    42   1
    45    18    43   1
    46    18    44   1
@<TRIPOS>SUBSTRUCTURE
     1  MOL      1

