@<TRIPOS>MOLECULE
2pcp_ligand_046
    44    46
SMALL
GAST_HUCK
****
This file was generated by PARSER (from files_GN.cpp)

@<TRIPOS>ATOM
      1 CP        -14.1892  -34.9949  -16.4359 C.3         1 MOL      -0.0434
      2 CA        -10.9449  -31.5461  -14.4761 C.ar        1 MOL      -0.0018
      3 CB        -11.9645  -30.7715  -13.8441 C.ar        1 MOL      -0.0343
      4 CC        -12.1308  -29.3923  -14.0765 C.ar        1 MOL      -0.0322
      5 CD        -11.2869  -28.7243  -14.9822 C.ar        1 MOL      -0.0340
      6 CE        -10.2768  -29.4458  -15.6383 C.ar        1 MOL      -0.0322
      7 CF        -10.1113  -30.8231  -15.3835 C.ar        1 MOL      -0.0343
      8 CG        -10.7831  -33.0497  -14.1912 C.3         1 MOL      -0.0135
      9 CH         -9.3538  -33.5820  -14.6453 C.3         1 MOL      -0.0293
     10 CI         -8.1425  -32.9083  -13.9304 C.3         1 MOL      -0.0551
     11 CJ         -8.2293  -33.0867  -12.3933 C.3         1 MOL      -0.0541
     12 CK         -9.6194  -32.6855  -11.8411 C.3         1 MOL      -0.0551
     13 CL        -10.7696  -33.3701  -12.6333 C.3         1 MOL      -0.0293
     14 NM        -11.9244  -33.8965  -14.7762 N.4         1 MOL       0.1961
     15 CN        -11.6738  -34.6236  -16.0765 C.3         1 MOL      -0.0361
     16 CO        -12.7911  -35.6662  -16.3832 C.3         1 MOL      -0.0123
     17 CQ        -14.4428  -34.2210  -15.1153 C.3         1 MOL      -0.0123
     18 CR        -13.2843  -33.2315  -14.8098 C.3         1 MOL      -0.0361
     19 H1        -14.2308  -34.3000  -17.2909 H           1 MOL       0.0269
     20 H2        -14.9645  -35.7612  -16.5649 H           1 MOL       0.0269
     21 H3        -12.6220  -31.2077  -13.1981 H           1 MOL       0.0852
     22 H4        -12.8716  -28.8726  -13.5962 H           1 MOL       0.0698
     23 H5        -11.4102  -27.7245  -15.1654 H           1 MOL       0.0856
     24 H6         -9.6688  -28.9667  -16.3089 H           1 MOL       0.0698
     25 H7         -9.3516  -31.2814  -15.8823 H           1 MOL       0.0852
     26 H8         -9.1996  -33.4700  -15.7184 H           1 MOL       0.0227
     27 H9         -9.2959  -34.6558  -14.4498 H           1 MOL       0.0227
     28 H10        -8.1010  -31.8369  -14.1559 H           1 MOL       0.0260
     29 H11        -7.2063  -33.3608  -14.2843 H           1 MOL       0.0260
     30 H12        -7.4669  -32.4613  -11.9187 H           1 MOL       0.0265
     31 H13        -8.0305  -34.1352  -12.1430 H           1 MOL       0.0265
     32 H14        -9.7271  -31.5980  -11.8973 H           1 MOL       0.0260
     33 H15        -9.6862  -32.9762  -10.7848 H           1 MOL       0.0260
     34 H16       -10.6702  -34.4538  -12.4883 H           1 MOL       0.0227
     35 H17       -11.7187  -33.1036  -12.1581 H           1 MOL       0.0227
     36 H18       -12.0331  -34.6591  -14.0994 H           1 MOL       0.1993
     37 H19       -11.6031  -33.9140  -16.9097 H           1 MOL       0.0815
     38 H20       -10.7524  -35.2090  -16.0311 H           1 MOL       0.0815
     39 H21       -12.5905  -36.1458  -17.3534 H           1 MOL       0.0317
     40 H22       -12.7938  -36.4417  -15.6037 H           1 MOL       0.0317
     41 H23       -14.5455  -34.9336  -14.2805 H           1 MOL       0.0317
     42 H24       -15.3812  -33.6616  -15.2112 H           1 MOL       0.0317
     43 H25       -13.2944  -32.4462  -15.5781 H           1 MOL       0.0815
     44 H26       -13.5087  -32.7707  -13.8329 H           1 MOL       0.0815
@<TRIPOS>BOND
     1     1    17   1
     2     1    16   1
     3    16    15   1
     4    15    14   1
     5    14    18   1
     6    14     8   1
     7     8    13   1
     8     8     9   1
     9     8     2   1
    10     2     7  ar
    11     2     3  ar
    12     3     4  ar
    13     4     5  ar
    14     5     6  ar
    15     6     7  ar
    16     9    10   1
    17    10    11   1
    18    11    12   1
    19    12    13   1
    20    18    17   1
    21     1    19   1
    22     1    20   1
    23     3    21   1
    24     4    22   1
    25     5    23   1
    26     6    24   1
    27     7    25   1
    28     9    26   1
    29     9    27   1
    30    10    28   1
    31    10    29   1
    32    11    30   1
    33    11    31   1
    34    12    32   1
    35    12    33   1
    36    13    34   1
    37    13    35   1
    38    14    36   1
    39    15    37   1
    40    15    38   1
    41    16    39   1
    42    16    40   1
    43    17    41   1
    44    17    42   1
    45    18    43   1
    46    18    44   1
@<TRIPOS>SUBSTRUCTURE
     1  MOL      1

