@<TRIPOS>MOLECULE
2pcp_ligand_045
    44    46
SMALL
GAST_HUCK
****
This file was generated by PARSER (from files_GN.cpp)

@<TRIPOS>ATOM
      1 CP         -8.1611  -23.5735  -11.5466 C.3         1 MOL      -0.0434
      2 CA         -4.8913  -27.2678  -13.1262 C.ar        1 MOL      -0.0018
      3 CB         -4.3466  -26.5911  -11.9926 C.ar        1 MOL      -0.0343
      4 CC         -2.9602  -26.5611  -11.7185 C.ar        1 MOL      -0.0322
      5 CD         -2.0620  -27.2359  -12.5543 C.ar        1 MOL      -0.0340
      6 CE         -2.5674  -27.9946  -13.6212 C.ar        1 MOL      -0.0322
      7 CF         -3.9542  -28.0497  -13.8654 C.ar        1 MOL      -0.0343
      8 CG         -6.3817  -27.1930  -13.5177 C.3         1 MOL      -0.0135
      9 CH         -6.5872  -27.0718  -15.0958 C.3         1 MOL      -0.0293
     10 CI         -8.0762  -27.1328  -15.5556 C.3         1 MOL      -0.0551
     11 CJ         -8.6963  -28.4967  -15.1645 C.3         1 MOL      -0.0541
     12 CK         -8.5132  -28.7758  -13.6514 C.3         1 MOL      -0.0551
     13 CL         -7.0361  -28.5904  -13.1827 C.3         1 MOL      -0.0293
     14 NM         -7.1400  -26.0082  -12.8923 N.4         1 MOL       0.1961
     15 CN         -6.6042  -24.6335  -13.2304 C.3         1 MOL      -0.0361
     16 CO         -7.6954  -23.5636  -13.0216 C.3         1 MOL      -0.0123
     17 CQ         -8.6581  -24.9774  -11.1412 C.3         1 MOL      -0.0123
     18 CR         -7.5783  -26.0526  -11.4430 C.3         1 MOL      -0.0361
     19 H1         -7.3331  -23.2928  -10.8937 H           1 MOL       0.0269
     20 H2         -8.9525  -22.8376  -11.4080 H           1 MOL       0.0269
     21 H3         -4.9457  -26.0874  -11.3349 H           1 MOL       0.0852
     22 H4         -2.6118  -26.0376  -10.9106 H           1 MOL       0.0698
     23 H5         -1.0539  -27.2042  -12.3679 H           1 MOL       0.0856
     24 H6         -1.9196  -28.5188  -14.2110 H           1 MOL       0.0698
     25 H7         -4.2610  -28.6745  -14.6113 H           1 MOL       0.0852
     26 H8         -6.1007  -27.8973  -15.6182 H           1 MOL       0.0227
     27 H9         -6.1236  -26.1695  -15.4959 H           1 MOL       0.0227
     28 H10        -8.1291  -27.0097  -16.6369 H           1 MOL       0.0260
     29 H11        -8.6693  -26.3205  -15.1320 H           1 MOL       0.0260
     30 H12        -8.2150  -29.2917  -15.7388 H           1 MOL       0.0265
     31 H13        -9.7595  -28.5023  -15.4145 H           1 MOL       0.0265
     32 H14        -8.8271  -29.8005  -13.4412 H           1 MOL       0.0260
     33 H15        -9.1786  -28.1113  -13.1000 H           1 MOL       0.0260
     34 H16        -6.9872  -28.7794  -12.1095 H           1 MOL       0.0227
     35 H17        -6.4540  -29.3848  -13.6583 H           1 MOL       0.0227
     36 H18        -8.0449  -26.0276  -13.3598 H           1 MOL       0.1993
     37 H19        -5.7402  -24.3747  -12.6132 H           1 MOL       0.0815
     38 H20        -6.2841  -24.5541  -14.2694 H           1 MOL       0.0815
     39 H21        -7.3108  -22.5772  -13.2914 H           1 MOL       0.0317
     40 H22        -8.5348  -23.7805  -13.6840 H           1 MOL       0.0317
     41 H23        -9.5754  -25.2185  -11.6862 H           1 MOL       0.0317
     42 H24        -8.8874  -24.9718  -10.0719 H           1 MOL       0.0317
     43 H25        -6.7390  -25.9081  -10.7639 H           1 MOL       0.0815
     44 H26        -8.0272  -27.0075  -11.1849 H           1 MOL       0.0815
@<TRIPOS>BOND
     1     1    17   1
     2     1    16   1
     3    16    15   1
     4    15    14   1
     5    14    18   1
     6    14     8   1
     7     8    13   1
     8     8     9   1
     9     8     2   1
    10     2     7  ar
    11     2     3  ar
    12     3     4  ar
    13     4     5  ar
    14     5     6  ar
    15     6     7  ar
    16     9    10   1
    17    10    11   1
    18    11    12   1
    19    12    13   1
    20    18    17   1
    21     1    19   1
    22     1    20   1
    23     3    21   1
    24     4    22   1
    25     5    23   1
    26     6    24   1
    27     7    25   1
    28     9    26   1
    29     9    27   1
    30    10    28   1
    31    10    29   1
    32    11    30   1
    33    11    31   1
    34    12    32   1
    35    12    33   1
    36    13    34   1
    37    13    35   1
    38    14    36   1
    39    15    37   1
    40    15    38   1
    41    16    39   1
    42    16    40   1
    43    17    41   1
    44    17    42   1
    45    18    43   1
    46    18    44   1
@<TRIPOS>SUBSTRUCTURE
     1  MOL      1

