@<TRIPOS>MOLECULE
2pcp_ligand_007
    44    46
SMALL
GAST_HUCK
****
This file was generated by PARSER (from files_GN.cpp)

@<TRIPOS>ATOM
      1 CP        -11.1346  -27.7585  -16.2691 C.3         1 MOL      -0.0434
      2 CA         -7.5841  -25.8665  -13.1922 C.ar        1 MOL      -0.0018
      3 CB         -7.7639  -26.1510  -11.8062 C.ar        1 MOL      -0.0343
      4 CC         -8.0395  -25.1390  -10.8652 C.ar        1 MOL      -0.0322
      5 CD         -8.1860  -23.8095  -11.2806 C.ar        1 MOL      -0.0340
      6 CE         -8.0738  -23.4971  -12.6394 C.ar        1 MOL      -0.0322
      7 CF         -7.7795  -24.5059  -13.5679 C.ar        1 MOL      -0.0343
      8 CG         -7.1863  -26.9143  -14.2408 C.3         1 MOL      -0.0135
      9 CH         -6.0432  -26.3578  -15.1936 C.3         1 MOL      -0.0293
     10 CI         -4.7044  -26.0183  -14.4717 C.3         1 MOL      -0.0551
     11 CJ         -4.0885  -27.2853  -13.8410 C.3         1 MOL      -0.0541
     12 CK         -5.1103  -27.9630  -12.9149 C.3         1 MOL      -0.0551
     13 CL         -6.4818  -28.1980  -13.6148 C.3         1 MOL      -0.0293
     14 NM         -8.3829  -27.3359  -15.1197 N.4         1 MOL       0.1961
     15 CN         -9.3610  -28.3150  -14.5140 C.3         1 MOL      -0.0361
     16 CO        -10.3465  -28.8860  -15.5680 C.3         1 MOL      -0.0123
     17 CQ        -10.1687  -26.7017  -16.8495 C.3         1 MOL      -0.0123
     18 CR         -9.1685  -26.2182  -15.7725 C.3         1 MOL      -0.0361
     19 H1        -11.7351  -28.1818  -17.0774 H           1 MOL       0.0269
     20 H2        -11.8119  -27.2872  -15.5496 H           1 MOL       0.0269
     21 H3         -7.6806  -27.0981  -11.4417 H           1 MOL       0.0852
     22 H4         -8.1288  -25.3659   -9.8744 H           1 MOL       0.0698
     23 H5         -8.3772  -23.0766  -10.5960 H           1 MOL       0.0856
     24 H6         -8.2062  -22.5359  -12.9605 H           1 MOL       0.0698
     25 H7         -7.7122  -24.2079  -14.5390 H           1 MOL       0.0852
     26 H8         -6.3278  -25.4630  -15.7404 H           1 MOL       0.0227
     27 H9         -5.8533  -27.1087  -15.9649 H           1 MOL       0.0227
     28 H10        -4.8694  -25.2603  -13.6998 H           1 MOL       0.0260
     29 H11        -3.9877  -25.6034  -15.1808 H           1 MOL       0.0260
     30 H12        -3.1922  -27.0275  -13.2709 H           1 MOL       0.0265
     31 H13        -3.7959  -27.9919  -14.6217 H           1 MOL       0.0265
     32 H14        -5.2413  -27.3388  -12.0285 H           1 MOL       0.0260
     33 H15        -4.6911  -28.9207  -12.5980 H           1 MOL       0.0260
     34 H16        -6.3356  -28.9410  -14.4063 H           1 MOL       0.0227
     35 H17        -7.1137  -28.6762  -12.8708 H           1 MOL       0.0227
     36 H18        -7.9704  -27.8456  -15.9072 H           1 MOL       0.1993
     37 H19        -8.8628  -29.1968  -14.1158 H           1 MOL       0.0815
     38 H20        -9.9101  -27.8456  -13.6904 H           1 MOL       0.0815
     39 H21        -9.7839  -29.4534  -16.3195 H           1 MOL       0.0317
     40 H22       -11.0500  -29.5673  -15.0810 H           1 MOL       0.0317
     41 H23       -10.7440  -25.8469  -17.2184 H           1 MOL       0.0317
     42 H24        -9.6167  -27.1256  -17.6941 H           1 MOL       0.0317
     43 H25        -8.5085  -25.5235  -16.2876 H           1 MOL       0.0815
     44 H26        -9.7299  -25.6562  -15.0177 H           1 MOL       0.0815
@<TRIPOS>BOND
     1     1    17   1
     2     1    16   1
     3    16    15   1
     4    15    14   1
     5    14    18   1
     6    14     8   1
     7     8    13   1
     8     8     9   1
     9     8     2   1
    10     2     7  ar
    11     2     3  ar
    12     3     4  ar
    13     4     5  ar
    14     5     6  ar
    15     6     7  ar
    16     9    10   1
    17    10    11   1
    18    11    12   1
    19    12    13   1
    20    18    17   1
    21     1    19   1
    22     1    20   1
    23     3    21   1
    24     4    22   1
    25     5    23   1
    26     6    24   1
    27     7    25   1
    28     9    26   1
    29     9    27   1
    30    10    28   1
    31    10    29   1
    32    11    30   1
    33    11    31   1
    34    12    32   1
    35    12    33   1
    36    13    34   1
    37    13    35   1
    38    14    36   1
    39    15    37   1
    40    15    38   1
    41    16    39   1
    42    16    40   1
    43    17    41   1
    44    17    42   1
    45    18    43   1
    46    18    44   1
@<TRIPOS>SUBSTRUCTURE
     1  MOL      1

