@<TRIPOS>MOLECULE
2pcp_ligand_060
    44    46
SMALL
GAST_HUCK
****
This file was generated by PARSER (from files_GN.cpp)

@<TRIPOS>ATOM
      1 CP        -11.7447  -26.6018  -15.5378 C.3         1 MOL      -0.0434
      2 CA         -7.3441  -25.3618  -13.3968 C.ar        1 MOL      -0.0018
      3 CB         -7.9615  -24.9278  -12.1863 C.ar        1 MOL      -0.0343
      4 CC         -7.7892  -23.6297  -11.6784 C.ar        1 MOL      -0.0322
      5 CD         -6.9870  -22.7234  -12.3814 C.ar        1 MOL      -0.0340
      6 CE         -6.3584  -23.1088  -13.5749 C.ar        1 MOL      -0.0322
      7 CF         -6.5269  -24.4055  -14.0621 C.ar        1 MOL      -0.0343
      8 CG         -7.5326  -26.7832  -13.9325 C.3         1 MOL      -0.0135
      9 CH         -6.4222  -27.1695  -15.0135 C.3         1 MOL      -0.0293
     10 CI         -6.4497  -28.6369  -15.5072 C.3         1 MOL      -0.0551
     11 CJ         -6.2806  -29.6186  -14.3351 C.3         1 MOL      -0.0541
     12 CK         -7.3026  -29.3136  -13.2120 C.3         1 MOL      -0.0551
     13 CL         -7.2298  -27.8238  -12.7710 C.3         1 MOL      -0.0293
     14 NM         -8.9321  -26.9598  -14.5359 N.4         1 MOL       0.1961
     15 CN         -9.2534  -26.0943  -15.7311 C.3         1 MOL      -0.0361
     16 CO        -10.5183  -26.5907  -16.4789 C.3         1 MOL      -0.0123
     17 CQ        -11.4318  -27.4068  -14.2553 C.3         1 MOL      -0.0123
     18 CR        -10.1121  -26.9295  -13.5920 C.3         1 MOL      -0.0361
     19 H1        -12.0070  -25.5718  -15.2728 H           1 MOL       0.0269
     20 H2        -12.5987  -27.0472  -16.0543 H           1 MOL       0.0269
     21 H3         -8.5543  -25.5507  -11.6368 H           1 MOL       0.0852
     22 H4         -8.2300  -23.3456  -10.8033 H           1 MOL       0.0698
     23 H5         -6.8330  -21.7769  -12.0000 H           1 MOL       0.0856
     24 H6         -5.7617  -22.4550  -14.0803 H           1 MOL       0.0698
     25 H7         -6.0320  -24.6193  -14.9198 H           1 MOL       0.0852
     26 H8         -5.4239  -26.9731  -14.5891 H           1 MOL       0.0227
     27 H9         -6.4769  -26.5458  -15.9108 H           1 MOL       0.0227
     28 H10        -5.6383  -28.7960  -16.2142 H           1 MOL       0.0260
     29 H11        -7.3864  -28.8373  -16.0169 H           1 MOL       0.0260
     30 H12        -5.2585  -29.5432  -13.9372 H           1 MOL       0.0265
     31 H13        -6.4226  -30.6423  -14.6935 H           1 MOL       0.0265
     32 H14        -7.0913  -29.9547  -12.3557 H           1 MOL       0.0260
     33 H15        -8.3081  -29.5513  -13.5583 H           1 MOL       0.0260
     34 H16        -7.8978  -27.7098  -11.9218 H           1 MOL       0.0227
     35 H17        -6.2215  -27.6360  -12.3713 H           1 MOL       0.0227
     36 H18        -8.9338  -27.9163  -14.8963 H           1 MOL       0.1993
     37 H19        -9.3961  -25.0585  -15.4226 H           1 MOL       0.0815
     38 H20        -8.4673  -26.1027  -16.4797 H           1 MOL       0.0815
     39 H21       -10.7236  -25.9370  -17.3347 H           1 MOL       0.0317
     40 H22       -10.3406  -27.6013  -16.8610 H           1 MOL       0.0317
     41 H23       -11.3421  -28.4679  -14.5045 H           1 MOL       0.0317
     42 H24       -12.2599  -27.2902  -13.5500 H           1 MOL       0.0317
     43 H25       -10.2765  -25.9180  -13.2085 H           1 MOL       0.0815
     44 H26        -9.9576  -27.5878  -12.7379 H           1 MOL       0.0815
@<TRIPOS>BOND
     1     1    17   1
     2     1    16   1
     3    16    15   1
     4    15    14   1
     5    14    18   1
     6    14     8   1
     7     8    13   1
     8     8     9   1
     9     8     2   1
    10     2     7  ar
    11     2     3  ar
    12     3     4  ar
    13     4     5  ar
    14     5     6  ar
    15     6     7  ar
    16     9    10   1
    17    10    11   1
    18    11    12   1
    19    12    13   1
    20    18    17   1
    21     1    19   1
    22     1    20   1
    23     3    21   1
    24     4    22   1
    25     5    23   1
    26     6    24   1
    27     7    25   1
    28     9    26   1
    29     9    27   1
    30    10    28   1
    31    10    29   1
    32    11    30   1
    33    11    31   1
    34    12    32   1
    35    12    33   1
    36    13    34   1
    37    13    35   1
    38    14    36   1
    39    15    37   1
    40    15    38   1
    41    16    39   1
    42    16    40   1
    43    17    41   1
    44    17    42   1
    45    18    43   1
    46    18    44   1
@<TRIPOS>SUBSTRUCTURE
     1  MOL      1

