@<TRIPOS>MOLECULE
2pcp_ligand_037
    44    46
SMALL
GAST_HUCK
****
This file was generated by PARSER (from files_GN.cpp)

@<TRIPOS>ATOM
      1 CP        -11.8932  -28.5984  -14.6680 C.3         1 MOL      -0.0434
      2 CA        -14.9400  -30.9148  -11.0339 C.ar        1 MOL      -0.0018
      3 CB        -14.0977  -31.8880  -10.4180 C.ar        1 MOL      -0.0343
      4 CC        -14.3787  -33.2660  -10.4705 C.ar        1 MOL      -0.0322
      5 CD        -15.4934  -33.7274  -11.1806 C.ar        1 MOL      -0.0340
      6 CE        -16.3124  -32.8108  -11.8572 C.ar        1 MOL      -0.0322
      7 CF        -16.0336  -31.4332  -11.7843 C.ar        1 MOL      -0.0343
      8 CG        -14.5675  -29.4236  -11.0964 C.3         1 MOL      -0.0135
      9 CH        -15.8769  -28.5332  -11.0090 C.3         1 MOL      -0.0293
     10 CI        -16.7001  -28.7318   -9.7053 C.3         1 MOL      -0.0551
     11 CJ        -15.8511  -28.3973   -8.4555 C.3         1 MOL      -0.0541
     12 CK        -14.4924  -29.1396   -8.4591 C.3         1 MOL      -0.0551
     13 CL        -13.7472  -28.9585   -9.8127 C.3         1 MOL      -0.0293
     14 NM        -13.8799  -29.0795  -12.4431 N.4         1 MOL       0.1961
     15 CN        -13.2728  -30.2061  -13.2499 C.3         1 MOL      -0.0361
     16 CO        -12.8762  -29.7866  -14.6873 C.3         1 MOL      -0.0123
     17 CQ        -12.4844  -27.4346  -13.8431 C.3         1 MOL      -0.0123
     18 CR        -12.9072  -27.9216  -12.4332 C.3         1 MOL      -0.0361
     19 H1        -10.9441  -28.9172  -14.2270 H           1 MOL       0.0269
     20 H2        -11.7008  -28.2661  -15.6893 H           1 MOL       0.0269
     21 H3        -13.2439  -31.6185   -9.9321 H           1 MOL       0.0852
     22 H4        -13.7581  -33.9329  -10.0070 H           1 MOL       0.0698
     23 H5        -15.6936  -34.7291  -11.2316 H           1 MOL       0.0856
     24 H6        -17.1012  -33.1469  -12.4153 H           1 MOL       0.0698
     25 H7        -16.6131  -30.8240  -12.3590 H           1 MOL       0.0852
     26 H8        -16.5402  -28.7049  -11.8538 H           1 MOL       0.0227
     27 H9        -15.6123  -27.4738  -11.0660 H           1 MOL       0.0227
     28 H10       -17.0612  -29.7612   -9.6386 H           1 MOL       0.0260
     29 H11       -17.5753  -28.0779   -9.7282 H           1 MOL       0.0260
     30 H12       -16.4070  -28.6724   -7.5568 H           1 MOL       0.0265
     31 H13       -15.6714  -27.3182   -8.4251 H           1 MOL       0.0265
     32 H14       -14.6602  -30.1977   -8.2543 H           1 MOL       0.0260
     33 H15       -13.8708  -28.7422   -7.6524 H           1 MOL       0.0260
     34 H16       -13.5236  -27.8925   -9.8621 H           1 MOL       0.0227
     35 H17       -12.7765  -29.4494   -9.7684 H           1 MOL       0.0227
     36 H18       -14.6391  -28.7538  -13.0432 H           1 MOL       0.1993
     37 H19       -12.4116  -30.6261  -12.7271 H           1 MOL       0.0815
     38 H20       -13.9834  -31.0130  -13.4072 H           1 MOL       0.0815
     39 H21       -12.4184  -30.6360  -15.2030 H           1 MOL       0.0317
     40 H22       -13.7798  -29.5032  -15.2377 H           1 MOL       0.0317
     41 H23       -13.3511  -27.0205  -14.3634 H           1 MOL       0.0317
     42 H24       -11.7357  -26.6425  -13.7483 H           1 MOL       0.0317
     43 H25       -12.0022  -28.2124  -11.8949 H           1 MOL       0.0815
     44 H26       -13.3364  -27.0550  -11.9289 H           1 MOL       0.0815
@<TRIPOS>BOND
     1     1    17   1
     2     1    16   1
     3    16    15   1
     4    15    14   1
     5    14    18   1
     6    14     8   1
     7     8    13   1
     8     8     9   1
     9     8     2   1
    10     2     7  ar
    11     2     3  ar
    12     3     4  ar
    13     4     5  ar
    14     5     6  ar
    15     6     7  ar
    16     9    10   1
    17    10    11   1
    18    11    12   1
    19    12    13   1
    20    18    17   1
    21     1    19   1
    22     1    20   1
    23     3    21   1
    24     4    22   1
    25     5    23   1
    26     6    24   1
    27     7    25   1
    28     9    26   1
    29     9    27   1
    30    10    28   1
    31    10    29   1
    32    11    30   1
    33    11    31   1
    34    12    32   1
    35    12    33   1
    36    13    34   1
    37    13    35   1
    38    14    36   1
    39    15    37   1
    40    15    38   1
    41    16    39   1
    42    16    40   1
    43    17    41   1
    44    17    42   1
    45    18    43   1
    46    18    44   1
@<TRIPOS>SUBSTRUCTURE
     1  MOL      1

