@<TRIPOS>MOLECULE
2pcp_ligand_058
    44    46
SMALL
GAST_HUCK
****
This file was generated by PARSER (from files_GN.cpp)

@<TRIPOS>ATOM
      1 CP         -9.1488  -24.6184  -11.0123 C.3         1 MOL      -0.0434
      2 CA         -7.7453  -28.4404  -14.2129 C.ar        1 MOL      -0.0018
      3 CB         -8.1736  -29.4499  -13.2993 C.ar        1 MOL      -0.0343
      4 CC         -9.0825  -30.4614  -13.6701 C.ar        1 MOL      -0.0322
      5 CD         -9.6528  -30.4531  -14.9486 C.ar        1 MOL      -0.0340
      6 CE         -9.3146  -29.4380  -15.8537 C.ar        1 MOL      -0.0322
      7 CF         -8.3708  -28.4553  -15.4917 C.ar        1 MOL      -0.0343
      8 CG         -6.7987  -27.3206  -13.7349 C.3         1 MOL      -0.0135
      9 CH         -5.5374  -28.0490  -13.1002 C.3         1 MOL      -0.0293
     10 CI         -4.1660  -27.3226  -12.9117 C.3         1 MOL      -0.0551
     11 CJ         -3.7699  -26.4186  -14.0953 C.3         1 MOL      -0.0541
     12 CK         -4.9549  -25.5876  -14.6370 C.3         1 MOL      -0.0551
     13 CL         -6.2367  -26.4300  -14.9099 C.3         1 MOL      -0.0293
     14 NM         -7.6255  -26.5115  -12.7203 N.4         1 MOL       0.1961
     15 CN         -8.9954  -26.0193  -13.1532 C.3         1 MOL      -0.0361
     16 CO         -9.8559  -25.6558  -11.9148 C.3         1 MOL      -0.0123
     17 CQ         -7.6896  -24.9950  -10.7146 C.3         1 MOL      -0.0123
     18 CR         -6.9492  -25.3762  -12.0080 C.3         1 MOL      -0.0361
     19 H1         -9.1610  -23.6378  -11.4946 H           1 MOL       0.0269
     20 H2         -9.6767  -24.5429  -10.0648 H           1 MOL       0.0269
     21 H3         -7.8488  -29.4429  -12.3349 H           1 MOL       0.0852
     22 H4         -9.3372  -31.1929  -12.9972 H           1 MOL       0.0698
     23 H5        -10.3328  -31.1731  -15.2114 H           1 MOL       0.0856
     24 H6         -9.7649  -29.4045  -16.7722 H           1 MOL       0.0698
     25 H7         -8.1951  -27.7107  -16.1621 H           1 MOL       0.0852
     26 H8         -5.3017  -28.9315  -13.7100 H           1 MOL       0.0227
     27 H9         -5.8184  -28.4070  -12.1133 H           1 MOL       0.0227
     28 H10        -3.3867  -28.0786  -12.7821 H           1 MOL       0.0260
     29 H11        -4.1431  -26.7421  -11.9916 H           1 MOL       0.0260
     30 H12        -3.3478  -27.0375  -14.8901 H           1 MOL       0.0265
     31 H13        -2.9798  -25.7386  -13.7697 H           1 MOL       0.0265
     32 H14        -4.6543  -25.1413  -15.5782 H           1 MOL       0.0260
     33 H15        -5.1559  -24.7640  -13.9633 H           1 MOL       0.0260
     34 H16        -7.0155  -25.7479  -15.2644 H           1 MOL       0.0227
     35 H17        -5.9801  -27.0879  -15.7474 H           1 MOL       0.0227
     36 H18        -7.8256  -27.1873  -11.9804 H           1 MOL       0.1993
     37 H19        -8.9044  -25.1537  -13.8219 H           1 MOL       0.0815
     38 H20        -9.5760  -26.7708  -13.6918 H           1 MOL       0.0815
     39 H21       -10.8281  -25.2650  -12.2298 H           1 MOL       0.0317
     40 H22       -10.0451  -26.5648  -11.3455 H           1 MOL       0.0317
     41 H23        -7.6404  -25.8345  -10.0158 H           1 MOL       0.0317
     42 H24        -7.1984  -24.1350  -10.2579 H           1 MOL       0.0317
     43 H25        -6.9040  -24.4925  -12.6380 H           1 MOL       0.0815
     44 H26        -5.9504  -25.6302  -11.7024 H           1 MOL       0.0815
@<TRIPOS>BOND
     1     1    17   1
     2     1    16   1
     3    16    15   1
     4    15    14   1
     5    14    18   1
     6    14     8   1
     7     8    13   1
     8     8     9   1
     9     8     2   1
    10     2     7  ar
    11     2     3  ar
    12     3     4  ar
    13     4     5  ar
    14     5     6  ar
    15     6     7  ar
    16     9    10   1
    17    10    11   1
    18    11    12   1
    19    12    13   1
    20    18    17   1
    21     1    19   1
    22     1    20   1
    23     3    21   1
    24     4    22   1
    25     5    23   1
    26     6    24   1
    27     7    25   1
    28     9    26   1
    29     9    27   1
    30    10    28   1
    31    10    29   1
    32    11    30   1
    33    11    31   1
    34    12    32   1
    35    12    33   1
    36    13    34   1
    37    13    35   1
    38    14    36   1
    39    15    37   1
    40    15    38   1
    41    16    39   1
    42    16    40   1
    43    17    41   1
    44    17    42   1
    45    18    43   1
    46    18    44   1
@<TRIPOS>SUBSTRUCTURE
     1  MOL      1

