@<TRIPOS>MOLECULE
2pcp_ligand_001
    44    46
SMALL
GAST_HUCK
****
This file was generated by PARSER (from files_GN.cpp)

@<TRIPOS>ATOM
      1 CP         -6.4000  -31.2482  -14.9422 C.3         1 MOL      -0.0434
      2 CA         -8.6399  -26.6880  -13.8585 C.ar        1 MOL      -0.0018
      3 CB         -8.2903  -25.3659  -14.2459 C.ar        1 MOL      -0.0343
      4 CC         -7.7040  -24.4511  -13.3500 C.ar        1 MOL      -0.0322
      5 CD         -7.4052  -24.8478  -12.0393 C.ar        1 MOL      -0.0340
      6 CE         -7.6669  -26.1653  -11.6383 C.ar        1 MOL      -0.0322
      7 CF         -8.2891  -27.0590  -12.5251 C.ar        1 MOL      -0.0343
      8 CG         -9.2706  -27.7344  -14.7911 C.3         1 MOL      -0.0135
      9 CH        -10.6601  -28.1581  -14.1438 C.3         1 MOL      -0.0293
     10 CI        -11.7147  -27.0199  -14.0625 C.3         1 MOL      -0.0551
     11 CJ        -12.0919  -26.5363  -15.4832 C.3         1 MOL      -0.0541
     12 CK        -10.8366  -26.1342  -16.2944 C.3         1 MOL      -0.0551
     13 CL         -9.6852  -27.1852  -16.2223 C.3         1 MOL      -0.0293
     14 NM         -8.2898  -28.8971  -15.1117 N.4         1 MOL       0.1961
     15 CN         -8.7808  -30.3102  -14.9210 C.3         1 MOL      -0.0361
     16 CO         -7.8328  -31.3967  -15.4967 C.3         1 MOL      -0.0123
     17 CQ         -5.8786  -29.8207  -15.2168 C.3         1 MOL      -0.0123
     18 CR         -6.8560  -28.7690  -14.6427 C.3         1 MOL      -0.0361
     19 H1         -6.3983  -31.4444  -13.8667 H           1 MOL       0.0269
     20 H2         -5.7386  -31.9748  -15.4185 H           1 MOL       0.0269
     21 H3         -8.4336  -25.0446  -15.2025 H           1 MOL       0.0852
     22 H4         -7.4868  -23.5011  -13.6556 H           1 MOL       0.0698
     23 H5         -6.9652  -24.1940  -11.3934 H           1 MOL       0.0856
     24 H6         -7.3933  -26.4740  -10.7023 H           1 MOL       0.0698
     25 H7         -8.4387  -28.0143  -12.1981 H           1 MOL       0.0852
     26 H8        -10.5139  -28.5787  -13.1491 H           1 MOL       0.0227
     27 H9        -11.1337  -28.9426  -14.7290 H           1 MOL       0.0227
     28 H10       -11.3291  -26.1836  -13.4764 H           1 MOL       0.0260
     29 H11       -12.6141  -27.3875  -13.5609 H           1 MOL       0.0260
     30 H12       -12.7767  -25.6875  -15.4111 H           1 MOL       0.0265
     31 H13       -12.6201  -27.3366  -16.0082 H           1 MOL       0.0265
     32 H14       -10.4925  -25.1651  -15.9404 H           1 MOL       0.0260
     33 H15       -11.1309  -25.9954  -17.3365 H           1 MOL       0.0260
     34 H16       -10.0141  -28.0289  -16.8359 H           1 MOL       0.0227
     35 H17        -8.8129  -26.7696  -16.7292 H           1 MOL       0.0227
     36 H18        -8.1812  -28.8529  -16.1248 H           1 MOL       0.1993
     37 H19        -8.9569  -30.5075  -13.8599 H           1 MOL       0.0815
     38 H20        -9.7211  -30.4466  -15.4589 H           1 MOL       0.0815
     39 H21        -8.2140  -32.3895  -15.2472 H           1 MOL       0.0317
     40 H22        -7.8026  -31.3106  -16.5862 H           1 MOL       0.0317
     41 H23        -5.7626  -29.6646  -16.2940 H           1 MOL       0.0317
     42 H24        -4.8967  -29.6968  -14.7486 H           1 MOL       0.0317
     43 H25        -6.8020  -28.8578  -13.5569 H           1 MOL       0.0815
     44 H26        -6.4662  -27.7903  -14.9309 H           1 MOL       0.0815
@<TRIPOS>BOND
     1     1    17   1
     2     1    16   1
     3    16    15   1
     4    15    14   1
     5    14    18   1
     6    14     8   1
     7     8    13   1
     8     8     9   1
     9     8     2   1
    10     2     7  ar
    11     2     3  ar
    12     3     4  ar
    13     4     5  ar
    14     5     6  ar
    15     6     7  ar
    16     9    10   1
    17    10    11   1
    18    11    12   1
    19    12    13   1
    20    18    17   1
    21     1    19   1
    22     1    20   1
    23     3    21   1
    24     4    22   1
    25     5    23   1
    26     6    24   1
    27     7    25   1
    28     9    26   1
    29     9    27   1
    30    10    28   1
    31    10    29   1
    32    11    30   1
    33    11    31   1
    34    12    32   1
    35    12    33   1
    36    13    34   1
    37    13    35   1
    38    14    36   1
    39    15    37   1
    40    15    38   1
    41    16    39   1
    42    16    40   1
    43    17    41   1
    44    17    42   1
    45    18    43   1
    46    18    44   1
@<TRIPOS>SUBSTRUCTURE
     1  MOL      1

