@<TRIPOS>MOLECULE
2pcp_ligand_012
    44    46
SMALL
GAST_HUCK
****
This file was generated by PARSER (from files_GN.cpp)

@<TRIPOS>ATOM
      1 CP         -9.7092  -28.6747  -15.0027 C.3         1 MOL      -0.0434
      2 CA        -11.0872  -33.5334  -14.7534 C.ar        1 MOL      -0.0018
      3 CB        -10.2143  -34.3586  -15.5197 C.ar        1 MOL      -0.0343
      4 CC        -10.6365  -35.0281  -16.6810 C.ar        1 MOL      -0.0322
      5 CD        -11.9485  -34.8589  -17.1509 C.ar        1 MOL      -0.0340
      6 CE        -12.8228  -34.0076  -16.4578 C.ar        1 MOL      -0.0322
      7 CF        -12.3900  -33.3569  -15.2905 C.ar        1 MOL      -0.0343
      8 CG        -10.6468  -32.8186  -13.4714 C.3         1 MOL      -0.0135
      9 CH        -11.7725  -32.8780  -12.3485 C.3         1 MOL      -0.0293
     10 CI        -12.1134  -34.2929  -11.8080 C.3         1 MOL      -0.0551
     11 CJ        -10.8664  -34.9599  -11.1929 C.3         1 MOL      -0.0541
     12 CK         -9.6911  -34.9465  -12.1952 C.3         1 MOL      -0.0551
     13 CL         -9.4145  -33.5118  -12.7365 C.3         1 MOL      -0.0293
     14 NM        -10.2868  -31.3535  -13.7632 N.4         1 MOL       0.1961
     15 CN         -9.0718  -31.1210  -14.6257 C.3         1 MOL      -0.0361
     16 CO         -8.5875  -29.6477  -14.5668 C.3         1 MOL      -0.0123
     17 CQ        -11.0041  -28.9410  -14.2062 C.3         1 MOL      -0.0123
     18 CR        -11.3903  -30.4418  -14.2505 C.3         1 MOL      -0.0361
     19 H1         -9.3801  -27.6423  -14.8397 H           1 MOL       0.0269
     20 H2         -9.9059  -28.8015  -16.0711 H           1 MOL       0.0269
     21 H3         -9.2432  -34.4882  -15.2519 H           1 MOL       0.0852
     22 H4         -9.9877  -35.6303  -17.1936 H           1 MOL       0.0698
     23 H5        -12.2612  -35.3416  -17.9933 H           1 MOL       0.0856
     24 H6        -13.7697  -33.8587  -16.8105 H           1 MOL       0.0698
     25 H7        -13.0652  -32.7391  -14.8426 H           1 MOL       0.0852
     26 H8        -12.7215  -32.4657  -12.6813 H           1 MOL       0.0227
     27 H9        -11.4691  -32.2637  -11.5008 H           1 MOL       0.0227
     28 H10       -12.4980  -34.9175  -12.6226 H           1 MOL       0.0260
     29 H11       -12.9003  -34.2154  -11.0501 H           1 MOL       0.0260
     30 H12       -11.1080  -35.9924  -10.9184 H           1 MOL       0.0265
     31 H13       -10.5706  -34.4255  -10.2857 H           1 MOL       0.0265
     32 H14        -9.9228  -35.6247  -13.0150 H           1 MOL       0.0260
     33 H15        -8.7986  -35.3272  -11.6844 H           1 MOL       0.0260
     34 H16        -9.1026  -32.8844  -11.8949 H           1 MOL       0.0227
     35 H17        -8.5368  -33.5897  -13.3667 H           1 MOL       0.0227
     36 H18       -10.0366  -30.9684  -12.8491 H           1 MOL       0.1993
     37 H19        -8.2275  -31.7202  -14.3088 H           1 MOL       0.0815
     38 H20        -9.2804  -31.3942  -15.6614 H           1 MOL       0.0815
     39 H21        -8.2822  -29.4122  -13.5451 H           1 MOL       0.0317
     40 H22        -7.7232  -29.5166  -15.2177 H           1 MOL       0.0317
     41 H23       -11.8133  -28.3384  -14.6265 H           1 MOL       0.0317
     42 H24       -10.8566  -28.6345  -13.1666 H           1 MOL       0.0317
     43 H25       -12.2834  -30.5106  -13.6347 H           1 MOL       0.0815
     44 H26       -11.6742  -30.6966  -15.2771 H           1 MOL       0.0815
@<TRIPOS>BOND
     1     1    17   1
     2     1    16   1
     3    16    15   1
     4    15    14   1
     5    14    18   1
     6    14     8   1
     7     8    13   1
     8     8     9   1
     9     8     2   1
    10     2     7  ar
    11     2     3  ar
    12     3     4  ar
    13     4     5  ar
    14     5     6  ar
    15     6     7  ar
    16     9    10   1
    17    10    11   1
    18    11    12   1
    19    12    13   1
    20    18    17   1
    21     1    19   1
    22     1    20   1
    23     3    21   1
    24     4    22   1
    25     5    23   1
    26     6    24   1
    27     7    25   1
    28     9    26   1
    29     9    27   1
    30    10    28   1
    31    10    29   1
    32    11    30   1
    33    11    31   1
    34    12    32   1
    35    12    33   1
    36    13    34   1
    37    13    35   1
    38    14    36   1
    39    15    37   1
    40    15    38   1
    41    16    39   1
    42    16    40   1
    43    17    41   1
    44    17    42   1
    45    18    43   1
    46    18    44   1
@<TRIPOS>SUBSTRUCTURE
     1  MOL      1

