@<TRIPOS>MOLECULE
2pcp_ligand_010
    44    46
SMALL
GAST_HUCK
****
This file was generated by PARSER (from files_GN.cpp)

@<TRIPOS>ATOM
      1 CP         -3.4653  -26.0827  -12.3012 C.3         1 MOL      -0.0434
      2 CA         -7.2696  -29.0088  -14.5731 C.ar        1 MOL      -0.0018
      3 CB         -6.4239  -29.4633  -15.6280 C.ar        1 MOL      -0.0343
      4 CC         -6.3140  -30.8244  -15.9729 C.ar        1 MOL      -0.0322
      5 CD         -7.0116  -31.7944  -15.2426 C.ar        1 MOL      -0.0340
      6 CE         -7.8078  -31.3983  -14.1539 C.ar        1 MOL      -0.0322
      7 CF         -7.9269  -30.0361  -13.8334 C.ar        1 MOL      -0.0343
      8 CG         -7.3050  -27.5105  -14.2150 C.3         1 MOL      -0.0135
      9 CH         -7.7423  -26.6899  -15.5026 C.3         1 MOL      -0.0293
     10 CI         -9.1795  -27.0076  -16.0029 C.3         1 MOL      -0.0551
     11 CJ        -10.2179  -26.6638  -14.9074 C.3         1 MOL      -0.0541
     12 CK         -9.8957  -27.3962  -13.5800 C.3         1 MOL      -0.0551
     13 CL         -8.4173  -27.1693  -13.1289 C.3         1 MOL      -0.0293
     14 NM         -5.8903  -27.0236  -13.8255 N.4         1 MOL       0.1961
     15 CN         -5.7898  -25.6412  -13.2007 C.3         1 MOL      -0.0361
     16 CO         -4.3491  -25.1064  -13.1059 C.3         1 MOL      -0.0123
     17 CQ         -3.5297  -27.4827  -12.9443 C.3         1 MOL      -0.0123
     18 CR         -5.0009  -27.9703  -13.0488 C.3         1 MOL      -0.0361
     19 H1         -2.4345  -25.7311  -12.2904 H           1 MOL       0.0269
     20 H2         -3.8156  -26.1409  -11.2660 H           1 MOL       0.0269
     21 H3         -5.8317  -28.8088  -16.1334 H           1 MOL       0.0852
     22 H4         -5.7049  -31.1087  -16.7445 H           1 MOL       0.0698
     23 H5         -6.9196  -32.7851  -15.4770 H           1 MOL       0.0856
     24 H6         -8.2863  -32.1059  -13.5886 H           1 MOL       0.0698
     25 H7         -8.4855  -29.8285  -13.0062 H           1 MOL       0.0852
     26 H8         -7.0315  -26.8297  -16.3172 H           1 MOL       0.0227
     27 H9         -7.7278  -25.6180  -15.3058 H           1 MOL       0.0227
     28 H10        -9.2678  -28.0635  -16.2669 H           1 MOL       0.0260
     29 H11        -9.3907  -26.4222  -16.9022 H           1 MOL       0.0260
     30 H12       -11.2194  -26.9403  -15.2487 H           1 MOL       0.0265
     31 H13       -10.2120  -25.5851  -14.7340 H           1 MOL       0.0265
     32 H14       -10.1094  -28.4542  -13.7186 H           1 MOL       0.0260
     33 H15       -10.5740  -27.0263  -12.8036 H           1 MOL       0.0260
     34 H16        -8.3864  -26.1111  -12.8704 H           1 MOL       0.0227
     35 H17        -8.2076  -27.7088  -12.1996 H           1 MOL       0.0227
     36 H18        -5.4016  -26.9248  -14.7186 H           1 MOL       0.1993
     37 H19        -6.3412  -24.9067  -13.7859 H           1 MOL       0.0815
     38 H20        -6.2130  -25.6435  -12.1897 H           1 MOL       0.0815
     39 H21        -3.9436  -24.9850  -14.1156 H           1 MOL       0.0317
     40 H22        -4.3410  -24.1251  -12.6182 H           1 MOL       0.0317
     41 H23        -2.9402  -28.1770  -12.3428 H           1 MOL       0.0317
     42 H24        -3.0851  -27.4420  -13.9433 H           1 MOL       0.0317
     43 H25        -4.9294  -28.9479  -13.5268 H           1 MOL       0.0815
     44 H26        -5.4121  -28.1276  -12.0531 H           1 MOL       0.0815
@<TRIPOS>BOND
     1     1    17   1
     2     1    16   1
     3    16    15   1
     4    15    14   1
     5    14    18   1
     6    14     8   1
     7     8    13   1
     8     8     9   1
     9     8     2   1
    10     2     7  ar
    11     2     3  ar
    12     3     4  ar
    13     4     5  ar
    14     5     6  ar
    15     6     7  ar
    16     9    10   1
    17    10    11   1
    18    11    12   1
    19    12    13   1
    20    18    17   1
    21     1    19   1
    22     1    20   1
    23     3    21   1
    24     4    22   1
    25     5    23   1
    26     6    24   1
    27     7    25   1
    28     9    26   1
    29     9    27   1
    30    10    28   1
    31    10    29   1
    32    11    30   1
    33    11    31   1
    34    12    32   1
    35    12    33   1
    36    13    34   1
    37    13    35   1
    38    14    36   1
    39    15    37   1
    40    15    38   1
    41    16    39   1
    42    16    40   1
    43    17    41   1
    44    17    42   1
    45    18    43   1
    46    18    44   1
@<TRIPOS>SUBSTRUCTURE
     1  MOL      1

