@<TRIPOS>MOLECULE
2pcp_ligand_014
    44    46
SMALL
GAST_HUCK
****
This file was generated by PARSER (from files_GN.cpp)

@<TRIPOS>ATOM
      1 CP        -11.0687  -29.3209  -15.4134 C.3         1 MOL      -0.0434
      2 CA         -6.3906  -27.0921  -13.8184 C.ar        1 MOL      -0.0018
      3 CB         -5.2976  -26.1887  -14.0438 C.ar        1 MOL      -0.0343
      4 CC         -3.9609  -26.6229  -14.0142 C.ar        1 MOL      -0.0322
      5 CD         -3.6714  -27.9988  -13.8756 C.ar        1 MOL      -0.0340
      6 CE         -4.7268  -28.9301  -13.7801 C.ar        1 MOL      -0.0322
      7 CF         -6.0437  -28.4748  -13.7060 C.ar        1 MOL      -0.0343
      8 CG         -7.8320  -26.6444  -13.5602 C.3         1 MOL      -0.0135
      9 CH         -8.0384  -26.7236  -11.9817 C.3         1 MOL      -0.0293
     10 CI         -7.3932  -25.6106  -11.1250 C.3         1 MOL      -0.0551
     11 CJ         -7.9727  -24.2360  -11.5138 C.3         1 MOL      -0.0541
     12 CK         -7.6466  -23.9626  -13.0026 C.3         1 MOL      -0.0551
     13 CL         -8.1419  -25.1249  -13.9323 C.3         1 MOL      -0.0293
     14 NM         -8.7662  -27.6395  -14.3434 N.4         1 MOL       0.1961
     15 CN         -9.4947  -28.6914  -13.5193 C.3         1 MOL      -0.0361
     16 CO        -10.0419  -29.8532  -14.3820 C.3         1 MOL      -0.0123
     17 CQ        -10.4568  -28.1790  -16.2683 C.3         1 MOL      -0.0123
     18 CR         -9.7312  -27.0998  -15.4011 C.3         1 MOL      -0.0361
     19 H1        -11.3723  -30.1471  -16.0692 H           1 MOL       0.0269
     20 H2        -11.9512  -28.9383  -14.8739 H           1 MOL       0.0269
     21 H3         -5.4425  -25.1995  -14.2387 H           1 MOL       0.0852
     22 H4         -3.2025  -25.9365  -14.1037 H           1 MOL       0.0698
     23 H5         -2.6964  -28.3075  -13.8788 H           1 MOL       0.0856
     24 H6         -4.5273  -29.9335  -13.7135 H           1 MOL       0.0698
     25 H7         -6.7613  -29.2042  -13.5673 H           1 MOL       0.0852
     26 H8         -7.6664  -27.6680  -11.5847 H           1 MOL       0.0227
     27 H9         -9.1071  -26.6700  -11.7778 H           1 MOL       0.0227
     28 H10        -6.3009  -25.6141  -11.2444 H           1 MOL       0.0260
     29 H11        -7.6244  -25.7858  -10.0683 H           1 MOL       0.0260
     30 H12        -7.5290  -23.4540  -10.8830 H           1 MOL       0.0265
     31 H13        -9.0591  -24.2208  -11.3617 H           1 MOL       0.0265
     32 H14        -6.5695  -23.7878  -13.0992 H           1 MOL       0.0260
     33 H15        -8.1577  -23.0321  -13.2915 H           1 MOL       0.0260
     34 H16        -9.2233  -24.9995  -13.9472 H           1 MOL       0.0227
     35 H17        -7.7903  -24.9118  -14.9485 H           1 MOL       0.0227
     36 H18        -8.1232  -28.1942  -14.9158 H           1 MOL       0.1993
     37 H19        -8.8195  -29.1807  -12.8126 H           1 MOL       0.0815
     38 H20       -10.3345  -28.2373  -12.9639 H           1 MOL       0.0815
     39 H21        -9.2081  -30.3281  -14.9203 H           1 MOL       0.0317
     40 H22       -10.5344  -30.6035  -13.7381 H           1 MOL       0.0317
     41 H23       -11.2735  -27.6975  -16.8303 H           1 MOL       0.0317
     42 H24        -9.7511  -28.6087  -16.9864 H           1 MOL       0.0317
     43 H25        -9.1825  -26.4563  -16.1015 H           1 MOL       0.0815
     44 H26       -10.5191  -26.5159  -14.9059 H           1 MOL       0.0815
@<TRIPOS>BOND
     1     1    17   1
     2     1    16   1
     3    16    15   1
     4    15    14   1
     5    14    18   1
     6    14     8   1
     7     8    13   1
     8     8     9   1
     9     8     2   1
    10     2     7  ar
    11     2     3  ar
    12     3     4  ar
    13     4     5  ar
    14     5     6  ar
    15     6     7  ar
    16     9    10   1
    17    10    11   1
    18    11    12   1
    19    12    13   1
    20    18    17   1
    21     1    19   1
    22     1    20   1
    23     3    21   1
    24     4    22   1
    25     5    23   1
    26     6    24   1
    27     7    25   1
    28     9    26   1
    29     9    27   1
    30    10    28   1
    31    10    29   1
    32    11    30   1
    33    11    31   1
    34    12    32   1
    35    12    33   1
    36    13    34   1
    37    13    35   1
    38    14    36   1
    39    15    37   1
    40    15    38   1
    41    16    39   1
    42    16    40   1
    43    17    41   1
    44    17    42   1
    45    18    43   1
    46    18    44   1
@<TRIPOS>SUBSTRUCTURE
     1  MOL      1

