@<TRIPOS>MOLECULE
2pcp_ligand_055
    44    46
SMALL
GAST_HUCK
****
This file was generated by PARSER (from files_GN.cpp)

@<TRIPOS>ATOM
      1 CP         -9.9358  -35.5030  -17.8936 C.3         1 MOL      -0.0434
      2 CA        -11.7315  -32.3408  -14.3759 C.ar        1 MOL      -0.0018
      3 CB        -11.1644  -31.0944  -14.7738 C.ar        1 MOL      -0.0343
      4 CC        -11.9469  -29.9784  -15.1127 C.ar        1 MOL      -0.0322
      5 CD        -13.3459  -30.0679  -15.0880 C.ar        1 MOL      -0.0340
      6 CE        -13.9499  -31.2833  -14.7385 C.ar        1 MOL      -0.0322
      7 CF        -13.1551  -32.3946  -14.3971 C.ar        1 MOL      -0.0343
      8 CG        -10.8478  -33.5197  -13.9305 C.3         1 MOL      -0.0135
      9 CH         -9.5970  -32.9411  -13.1380 C.3         1 MOL      -0.0293
     10 CI         -8.6291  -34.0270  -12.5964 C.3         1 MOL      -0.0551
     11 CJ         -9.3427  -35.0267  -11.6563 C.3         1 MOL      -0.0541
     12 CK        -10.6584  -35.5666  -12.2644 C.3         1 MOL      -0.0551
     13 CL        -11.5443  -34.4119  -12.8120 C.3         1 MOL      -0.0293
     14 NM        -10.4221  -34.4067  -15.1175 N.4         1 MOL       0.1961
     15 CN        -11.5395  -34.9555  -15.9734 C.3         1 MOL      -0.0361
     16 CO        -11.0625  -36.0354  -16.9808 C.3         1 MOL      -0.0123
     17 CQ         -8.7916  -34.9247  -17.0360 C.3         1 MOL      -0.0123
     18 CR         -9.3083  -33.8931  -15.9960 C.3         1 MOL      -0.0361
     19 H1         -9.5537  -36.3181  -18.5155 H           1 MOL       0.0269
     20 H2        -10.3319  -34.7300  -18.5580 H           1 MOL       0.0269
     21 H3        -10.1521  -30.9668  -14.8208 H           1 MOL       0.0852
     22 H4        -11.4988  -29.0957  -15.3841 H           1 MOL       0.0698
     23 H5        -13.9194  -29.2578  -15.3338 H           1 MOL       0.0856
     24 H6        -14.9699  -31.3576  -14.7292 H           1 MOL       0.0698
     25 H7        -13.6579  -33.2460  -14.1573 H           1 MOL       0.0852
     26 H8         -9.9418  -32.3397  -12.2899 H           1 MOL       0.0227
     27 H9         -8.9885  -32.2700  -13.7425 H           1 MOL       0.0227
     28 H10        -7.8100  -33.5432  -12.0568 H           1 MOL       0.0260
     29 H11        -8.1850  -34.5602  -13.4374 H           1 MOL       0.0260
     30 H12        -9.5731  -34.5260  -10.7126 H           1 MOL       0.0265
     31 H13        -8.6710  -35.8620  -11.4409 H           1 MOL       0.0265
     32 H14       -11.2108  -36.1044  -11.4890 H           1 MOL       0.0260
     33 H15       -10.4332  -36.2787  -13.0586 H           1 MOL       0.0260
     34 H16       -12.4700  -34.8674  -13.1585 H           1 MOL       0.0227
     35 H17       -11.8309  -33.7772  -11.9649 H           1 MOL       0.0227
     36 H18       -10.0207  -35.2389  -14.6824 H           1 MOL       0.1993
     37 H19       -12.2892  -35.4615  -15.3715 H           1 MOL       0.0815
     38 H20       -12.0440  -34.1503  -16.5108 H           1 MOL       0.0815
     39 H21       -10.6915  -36.9025  -16.4243 H           1 MOL       0.0317
     40 H22       -11.9033  -36.3647  -17.5986 H           1 MOL       0.0317
     41 H23        -8.0537  -34.4557  -17.6866 H           1 MOL       0.0317
     42 H24        -8.2980  -35.7451  -16.5189 H           1 MOL       0.0317
     43 H25        -8.4393  -33.6119  -15.4032 H           1 MOL       0.0815
     44 H26        -9.6389  -33.0085  -16.5383 H           1 MOL       0.0815
@<TRIPOS>BOND
     1     1    17   1
     2     1    16   1
     3    16    15   1
     4    15    14   1
     5    14    18   1
     6    14     8   1
     7     8    13   1
     8     8     9   1
     9     8     2   1
    10     2     7  ar
    11     2     3  ar
    12     3     4  ar
    13     4     5  ar
    14     5     6  ar
    15     6     7  ar
    16     9    10   1
    17    10    11   1
    18    11    12   1
    19    12    13   1
    20    18    17   1
    21     1    19   1
    22     1    20   1
    23     3    21   1
    24     4    22   1
    25     5    23   1
    26     6    24   1
    27     7    25   1
    28     9    26   1
    29     9    27   1
    30    10    28   1
    31    10    29   1
    32    11    30   1
    33    11    31   1
    34    12    32   1
    35    12    33   1
    36    13    34   1
    37    13    35   1
    38    14    36   1
    39    15    37   1
    40    15    38   1
    41    16    39   1
    42    16    40   1
    43    17    41   1
    44    17    42   1
    45    18    43   1
    46    18    44   1
@<TRIPOS>SUBSTRUCTURE
     1  MOL      1

