@<TRIPOS>MOLECULE
2pcp_ligand_031
    44    46
SMALL
GAST_HUCK
****
This file was generated by PARSER (from files_GN.cpp)

@<TRIPOS>ATOM
      1 CP         -6.2285  -28.9700  -15.3406 C.3         1 MOL      -0.0434
      2 CA         -9.0081  -33.3961  -15.3174 C.ar        1 MOL      -0.0018
      3 CB        -10.2818  -33.9675  -15.6165 C.ar        1 MOL      -0.0343
      4 CC        -10.4777  -34.8584  -16.6917 C.ar        1 MOL      -0.0322
      5 CD         -9.4132  -35.1599  -17.5608 C.ar        1 MOL      -0.0340
      6 CE         -8.1547  -34.5799  -17.3321 C.ar        1 MOL      -0.0322
      7 CF         -7.9622  -33.7401  -16.2202 C.ar        1 MOL      -0.0343
      8 CG         -8.7276  -32.5167  -14.0994 C.3         1 MOL      -0.0135
      9 CH        -10.0153  -31.8915  -13.4037 C.3         1 MOL      -0.0293
     10 CI        -10.9383  -32.8028  -12.5423 C.3         1 MOL      -0.0551
     11 CJ        -10.1388  -33.6509  -11.5413 C.3         1 MOL      -0.0541
     12 CK         -8.9984  -34.3994  -12.2629 C.3         1 MOL      -0.0551
     13 CL         -8.0524  -33.4025  -12.9837 C.3         1 MOL      -0.0293
     14 NM         -7.8223  -31.3148  -14.4405 N.4         1 MOL       0.1961
     15 CN         -6.4613  -31.4976  -15.0677 C.3         1 MOL      -0.0361
     16 CO         -5.5613  -30.2574  -14.7988 C.3         1 MOL      -0.0123
     17 CQ         -7.6920  -28.8395  -14.8480 C.3         1 MOL      -0.0123
     18 CR         -8.4964  -30.1418  -15.1099 C.3         1 MOL      -0.0361
     19 H1         -5.6507  -28.0967  -15.0190 H           1 MOL       0.0269
     20 H2         -6.2054  -29.0017  -16.4348 H           1 MOL       0.0269
     21 H3        -11.1047  -33.7445  -15.0641 H           1 MOL       0.0852
     22 H4        -11.4020  -35.2710  -16.8574 H           1 MOL       0.0698
     23 H5         -9.5600  -35.7902  -18.3510 H           1 MOL       0.0856
     24 H6         -7.3745  -34.7955  -17.9643 H           1 MOL       0.0698
     25 H7         -7.0110  -33.4080  -16.0655 H           1 MOL       0.0852
     26 H8        -10.6628  -31.4109  -14.1349 H           1 MOL       0.0227
     27 H9         -9.6870  -31.1009  -12.7293 H           1 MOL       0.0227
     28 H10       -11.5325  -33.4696  -13.1707 H           1 MOL       0.0260
     29 H11       -11.6359  -32.1662  -11.9872 H           1 MOL       0.0260
     30 H12       -10.8009  -34.3706  -11.0563 H           1 MOL       0.0265
     31 H13        -9.7259  -32.9987  -10.7689 H           1 MOL       0.0265
     32 H14        -9.4161  -35.1007  -12.9859 H           1 MOL       0.0260
     33 H15        -8.4293  -34.9805  -11.5367 H           1 MOL       0.0260
     34 H16        -7.6320  -32.7463  -12.2205 H           1 MOL       0.0227
     35 H17        -7.2222  -33.9851  -13.3846 H           1 MOL       0.0227
     36 H18        -7.5744  -30.9609  -13.5158 H           1 MOL       0.1993
     37 H19        -5.9272  -32.3585  -14.6644 H           1 MOL       0.0815
     38 H20        -6.5319  -31.6225  -16.1496 H           1 MOL       0.0815
     39 H21        -5.4034  -30.1472  -13.7243 H           1 MOL       0.0317
     40 H22        -4.5901  -30.3987  -15.2791 H           1 MOL       0.0317
     41 H23        -8.1778  -27.9993  -15.3590 H           1 MOL       0.0317
     42 H24        -7.6965  -28.6277  -13.7746 H           1 MOL       0.0317
     43 H25        -9.4997  -29.9621  -14.7420 H           1 MOL       0.0815
     44 H26        -8.5867  -30.3111  -16.1862 H           1 MOL       0.0815
@<TRIPOS>BOND
     1     1    17   1
     2     1    16   1
     3    16    15   1
     4    15    14   1
     5    14    18   1
     6    14     8   1
     7     8    13   1
     8     8     9   1
     9     8     2   1
    10     2     7  ar
    11     2     3  ar
    12     3     4  ar
    13     4     5  ar
    14     5     6  ar
    15     6     7  ar
    16     9    10   1
    17    10    11   1
    18    11    12   1
    19    12    13   1
    20    18    17   1
    21     1    19   1
    22     1    20   1
    23     3    21   1
    24     4    22   1
    25     5    23   1
    26     6    24   1
    27     7    25   1
    28     9    26   1
    29     9    27   1
    30    10    28   1
    31    10    29   1
    32    11    30   1
    33    11    31   1
    34    12    32   1
    35    12    33   1
    36    13    34   1
    37    13    35   1
    38    14    36   1
    39    15    37   1
    40    15    38   1
    41    16    39   1
    42    16    40   1
    43    17    41   1
    44    17    42   1
    45    18    43   1
    46    18    44   1
@<TRIPOS>SUBSTRUCTURE
     1  MOL      1

