@<TRIPOS>MOLECULE
2pcp_ligand_016
    44    46
SMALL
GAST_HUCK
****
This file was generated by PARSER (from files_GN.cpp)

@<TRIPOS>ATOM
      1 CP        -10.6404  -32.4488  -13.3942 C.3         1 MOL      -0.0434
      2 CA         -9.5919  -27.3644  -13.4561 C.ar        1 MOL      -0.0018
      3 CB         -8.2156  -27.6440  -13.1391 C.ar        1 MOL      -0.0343
      4 CC         -7.5106  -26.9336  -12.1527 C.ar        1 MOL      -0.0322
      5 CD         -8.1257  -25.8996  -11.4339 C.ar        1 MOL      -0.0340
      6 CE         -9.4641  -25.5949  -11.7143 C.ar        1 MOL      -0.0322
      7 CF        -10.1932  -26.3291  -12.6641 C.ar        1 MOL      -0.0343
      8 CG        -10.3083  -28.0839  -14.6300 C.3         1 MOL      -0.0135
      9 CH        -11.7282  -27.4558  -14.9675 C.3         1 MOL      -0.0293
     10 CI        -11.7898  -25.9928  -15.4877 C.3         1 MOL      -0.0551
     11 CJ        -10.8528  -25.7758  -16.6987 C.3         1 MOL      -0.0541
     12 CK         -9.4302  -26.3261  -16.4286 C.3         1 MOL      -0.0551
     13 CL         -9.4902  -27.8130  -15.9665 C.3         1 MOL      -0.0293
     14 NM        -10.4299  -29.6257  -14.5032 N.4         1 MOL       0.1961
     15 CN         -9.2503  -30.3544  -13.9209 C.3         1 MOL      -0.0361
     16 CO         -9.3137  -31.9090  -13.9837 C.3         1 MOL      -0.0123
     17 CQ        -11.8224  -31.7413  -14.0784 C.3         1 MOL      -0.0123
     18 CR        -11.7244  -30.2077  -13.9424 C.3         1 MOL      -0.0361
     19 H1        -10.6923  -33.5277  -13.5561 H           1 MOL       0.0269
     20 H2        -10.6702  -32.2570  -12.3165 H           1 MOL       0.0269
     21 H3         -7.7169  -28.3982  -13.6546 H           1 MOL       0.0852
     22 H4         -6.5259  -27.1739  -11.9625 H           1 MOL       0.0698
     23 H5         -7.6139  -25.4131  -10.7041 H           1 MOL       0.0856
     24 H6         -9.9174  -24.8515  -11.1847 H           1 MOL       0.0698
     25 H7        -11.1679  -26.0964  -12.7747 H           1 MOL       0.0852
     26 H8        -12.3883  -27.5214  -14.0913 H           1 MOL       0.0227
     27 H9        -12.2037  -28.0558  -15.7552 H           1 MOL       0.0227
     28 H10       -11.5081  -25.2773  -14.7042 H           1 MOL       0.0260
     29 H11       -12.8228  -25.7493  -15.7853 H           1 MOL       0.0260
     30 H12       -10.7913  -24.7090  -16.9214 H           1 MOL       0.0265
     31 H13       -11.2743  -26.2878  -17.5685 H           1 MOL       0.0265
     32 H14        -8.9231  -25.7105  -15.6835 H           1 MOL       0.0260
     33 H15        -8.8658  -26.2655  -17.3582 H           1 MOL       0.0260
     34 H16        -9.9382  -28.3847  -16.7860 H           1 MOL       0.0227
     35 H17        -8.4708  -28.1720  -15.8805 H           1 MOL       0.0227
     36 H18       -10.4530  -29.9471  -15.4767 H           1 MOL       0.1993
     37 H19        -8.3404  -30.0597  -14.4541 H           1 MOL       0.0815
     38 H20        -9.1185  -30.0857  -12.8676 H           1 MOL       0.0815
     39 H21        -9.2202  -32.2306  -15.0282 H           1 MOL       0.0317
     40 H22        -8.4746  -32.3282  -13.4205 H           1 MOL       0.0317
     41 H23       -12.7580  -32.0949  -13.6291 H           1 MOL       0.0317
     42 H24       -11.8365  -32.0160  -15.1431 H           1 MOL       0.0317
     43 H25       -12.5892  -29.8387  -14.4827 H           1 MOL       0.0815
     44 H26       -11.8291  -29.9139  -12.8978 H           1 MOL       0.0815
@<TRIPOS>BOND
     1     1    17   1
     2     1    16   1
     3    16    15   1
     4    15    14   1
     5    14    18   1
     6    14     8   1
     7     8    13   1
     8     8     9   1
     9     8     2   1
    10     2     7  ar
    11     2     3  ar
    12     3     4  ar
    13     4     5  ar
    14     5     6  ar
    15     6     7  ar
    16     9    10   1
    17    10    11   1
    18    11    12   1
    19    12    13   1
    20    18    17   1
    21     1    19   1
    22     1    20   1
    23     3    21   1
    24     4    22   1
    25     5    23   1
    26     6    24   1
    27     7    25   1
    28     9    26   1
    29     9    27   1
    30    10    28   1
    31    10    29   1
    32    11    30   1
    33    11    31   1
    34    12    32   1
    35    12    33   1
    36    13    34   1
    37    13    35   1
    38    14    36   1
    39    15    37   1
    40    15    38   1
    41    16    39   1
    42    16    40   1
    43    17    41   1
    44    17    42   1
    45    18    43   1
    46    18    44   1
@<TRIPOS>SUBSTRUCTURE
     1  MOL      1

