@<TRIPOS>MOLECULE
2pcp_ligand_057
    44    46
SMALL
GAST_HUCK
****
This file was generated by PARSER (from files_GN.cpp)

@<TRIPOS>ATOM
      1 CP         -8.0732  -35.7542  -18.7706 C.3         1 MOL      -0.0434
      2 CA         -8.7849  -32.1908  -14.9061 C.ar        1 MOL      -0.0018
      3 CB         -9.2785  -33.0429  -13.8733 C.ar        1 MOL      -0.0343
      4 CC        -10.4978  -32.8006  -13.2180 C.ar        1 MOL      -0.0322
      5 CD        -11.2970  -31.7143  -13.5938 C.ar        1 MOL      -0.0340
      6 CE        -10.8746  -30.8717  -14.6340 C.ar        1 MOL      -0.0322
      7 CF         -9.6546  -31.1206  -15.2840 C.ar        1 MOL      -0.0343
      8 CG         -7.4770  -32.5214  -15.6434 C.3         1 MOL      -0.0135
      9 CH         -6.9019  -31.3026  -16.4868 C.3         1 MOL      -0.0293
     10 CI         -6.5432  -30.0338  -15.6546 C.3         1 MOL      -0.0551
     11 CJ         -5.5411  -30.3612  -14.5234 C.3         1 MOL      -0.0541
     12 CK         -6.0049  -31.5699  -13.6720 C.3         1 MOL      -0.0551
     13 CL         -6.3416  -32.7925  -14.5648 C.3         1 MOL      -0.0293
     14 NM         -7.6457  -33.8213  -16.4747 N.4         1 MOL       0.1961
     15 CN         -6.5658  -34.1249  -17.4887 C.3         1 MOL      -0.0361
     16 CO         -6.6736  -35.5154  -18.1696 C.3         1 MOL      -0.0123
     17 CQ         -9.1499  -35.5091  -17.6986 C.3         1 MOL      -0.0123
     18 CR         -9.0001  -34.0866  -17.0942 C.3         1 MOL      -0.0361
     19 H1         -8.2312  -35.0761  -19.6162 H           1 MOL       0.0269
     20 H2         -8.1435  -36.7809  -19.1397 H           1 MOL       0.0269
     21 H3         -8.7631  -33.8896  -13.6060 H           1 MOL       0.0852
     22 H4        -10.8209  -33.4386  -12.4813 H           1 MOL       0.0698
     23 H5        -12.1806  -31.5332  -13.1138 H           1 MOL       0.0856
     24 H6        -11.4563  -30.0862  -14.9238 H           1 MOL       0.0698
     25 H7         -9.4422  -30.5173  -16.0716 H           1 MOL       0.0852
     26 H8         -7.5895  -31.0236  -17.2797 H           1 MOL       0.0227
     27 H9         -5.9715  -31.5929  -16.9834 H           1 MOL       0.0227
     28 H10        -7.4315  -29.5799  -15.2207 H           1 MOL       0.0260
     29 H11        -6.0865  -29.2903  -16.3139 H           1 MOL       0.0260
     30 H12        -5.4135  -29.4880  -13.8775 H           1 MOL       0.0265
     31 H13        -4.5750  -30.5923  -14.9712 H           1 MOL       0.0265
     32 H14        -6.8873  -31.2909  -13.0893 H           1 MOL       0.0260
     33 H15        -5.2101  -31.8493  -12.9716 H           1 MOL       0.0260
     34 H16        -5.4148  -33.0850  -15.0548 H           1 MOL       0.0227
     35 H17        -6.5937  -33.6324  -13.9094 H           1 MOL       0.0227
     36 H18        -7.5631  -34.5607  -15.7763 H           1 MOL       0.1993
     37 H19        -6.5853  -33.3853  -18.2871 H           1 MOL       0.0815
     38 H20        -5.5764  -34.0828  -17.0358 H           1 MOL       0.0815
     39 H21        -5.9313  -35.5870  -18.9662 H           1 MOL       0.0317
     40 H22        -6.4659  -36.2930  -17.4318 H           1 MOL       0.0317
     41 H23        -9.0603  -36.2558  -16.9045 H           1 MOL       0.0317
     42 H24       -10.1405  -35.6151  -18.1471 H           1 MOL       0.0317
     43 H25        -9.1951  -33.3466  -17.8734 H           1 MOL       0.0815
     44 H26        -9.8014  -34.0211  -16.3591 H           1 MOL       0.0815
@<TRIPOS>BOND
     1     1    17   1
     2     1    16   1
     3    16    15   1
     4    15    14   1
     5    14    18   1
     6    14     8   1
     7     8    13   1
     8     8     9   1
     9     8     2   1
    10     2     7  ar
    11     2     3  ar
    12     3     4  ar
    13     4     5  ar
    14     5     6  ar
    15     6     7  ar
    16     9    10   1
    17    10    11   1
    18    11    12   1
    19    12    13   1
    20    18    17   1
    21     1    19   1
    22     1    20   1
    23     3    21   1
    24     4    22   1
    25     5    23   1
    26     6    24   1
    27     7    25   1
    28     9    26   1
    29     9    27   1
    30    10    28   1
    31    10    29   1
    32    11    30   1
    33    11    31   1
    34    12    32   1
    35    12    33   1
    36    13    34   1
    37    13    35   1
    38    14    36   1
    39    15    37   1
    40    15    38   1
    41    16    39   1
    42    16    40   1
    43    17    41   1
    44    17    42   1
    45    18    43   1
    46    18    44   1
@<TRIPOS>SUBSTRUCTURE
     1  MOL      1

