@<TRIPOS>MOLECULE
2pcp_ligand_006
    44    46
SMALL
GAST_HUCK
****
This file was generated by PARSER (from files_GN.cpp)

@<TRIPOS>ATOM
      1 CP         -5.1534  -25.4829  -13.5294 C.3         1 MOL      -0.0434
      2 CA         -9.1780  -28.6748  -14.5992 C.ar        1 MOL      -0.0018
      3 CB         -8.1227  -29.2765  -15.3382 C.ar        1 MOL      -0.0343
      4 CC         -8.0277  -30.6661  -15.5130 C.ar        1 MOL      -0.0322
      5 CD         -8.9916  -31.5172  -14.9488 C.ar        1 MOL      -0.0340
      6 CE        -10.0442  -30.9660  -14.2012 C.ar        1 MOL      -0.0322
      7 CF        -10.1270  -29.5707  -14.0234 C.ar        1 MOL      -0.0343
      8 CG         -9.2370  -27.1468  -14.4619 C.3         1 MOL      -0.0135
      9 CH         -9.9065  -26.6568  -15.8091 C.3         1 MOL      -0.0293
     10 CI        -11.4246  -26.9452  -15.9088 C.3         1 MOL      -0.0551
     11 CJ        -12.1800  -26.1904  -14.7909 C.3         1 MOL      -0.0541
     12 CK        -11.6667  -26.5882  -13.3834 C.3         1 MOL      -0.0551
     13 CL        -10.1091  -26.6169  -13.2516 C.3         1 MOL      -0.0293
     14 NM         -7.8030  -26.6056  -14.3040 N.4         1 MOL       0.1961
     15 CN         -7.0165  -27.1889  -13.1458 C.3         1 MOL      -0.0361
     16 CO         -5.4951  -26.9828  -13.3545 C.3         1 MOL      -0.0123
     17 CQ         -6.0437  -24.8207  -14.6051 C.3         1 MOL      -0.0123
     18 CR         -7.5431  -25.1142  -14.3486 C.3         1 MOL      -0.0361
     19 H1         -5.3045  -24.9694  -12.5750 H           1 MOL       0.0269
     20 H2         -4.0998  -25.3810  -13.8070 H           1 MOL       0.0269
     21 H3         -7.3882  -28.7023  -15.7621 H           1 MOL       0.0852
     22 H4         -7.2594  -31.0657  -16.0610 H           1 MOL       0.0698
     23 H5         -8.9208  -32.5244  -15.0742 H           1 MOL       0.0856
     24 H6        -10.7421  -31.5844  -13.7701 H           1 MOL       0.0698
     25 H7        -10.9038  -29.2249  -13.4642 H           1 MOL       0.0852
     26 H8         -9.4143  -27.0951  -16.6806 H           1 MOL       0.0227
     27 H9         -9.8200  -25.5827  -15.9428 H           1 MOL       0.0227
     28 H10       -11.6217  -28.0160  -15.8324 H           1 MOL       0.0260
     29 H11       -11.7926  -26.6098  -16.8787 H           1 MOL       0.0260
     30 H12       -13.2493  -26.4096  -14.8593 H           1 MOL       0.0265
     31 H13       -12.0556  -25.1103  -14.9242 H           1 MOL       0.0265
     32 H14       -12.0869  -27.5577  -13.1185 H           1 MOL       0.0260
     33 H15       -12.0634  -25.8650  -12.6559 H           1 MOL       0.0260
     34 H16        -9.8225  -25.5871  -13.0352 H           1 MOL       0.0227
     35 H17        -9.8445  -27.1853  -12.3588 H           1 MOL       0.0227
     36 H18        -7.3125  -26.9348  -15.1352 H           1 MOL       0.1993
     37 H19        -7.3239  -26.7274  -12.2036 H           1 MOL       0.0815
     38 H20        -7.1835  -28.2643  -13.0399 H           1 MOL       0.0815
     39 H21        -4.9404  -27.3881  -12.5027 H           1 MOL       0.0317
     40 H22        -5.1832  -27.5294  -14.2487 H           1 MOL       0.0317
     41 H23        -5.7671  -25.2030  -15.5936 H           1 MOL       0.0317
     42 H24        -5.8715  -23.7414  -14.5988 H           1 MOL       0.0317
     43 H25        -7.8367  -24.6255  -13.4135 H           1 MOL       0.0815
     44 H26        -8.0674  -24.6160  -15.1550 H           1 MOL       0.0815
@<TRIPOS>BOND
     1     1    17   1
     2     1    16   1
     3    16    15   1
     4    15    14   1
     5    14    18   1
     6    14     8   1
     7     8    13   1
     8     8     9   1
     9     8     2   1
    10     2     7  ar
    11     2     3  ar
    12     3     4  ar
    13     4     5  ar
    14     5     6  ar
    15     6     7  ar
    16     9    10   1
    17    10    11   1
    18    11    12   1
    19    12    13   1
    20    18    17   1
    21     1    19   1
    22     1    20   1
    23     3    21   1
    24     4    22   1
    25     5    23   1
    26     6    24   1
    27     7    25   1
    28     9    26   1
    29     9    27   1
    30    10    28   1
    31    10    29   1
    32    11    30   1
    33    11    31   1
    34    12    32   1
    35    12    33   1
    36    13    34   1
    37    13    35   1
    38    14    36   1
    39    15    37   1
    40    15    38   1
    41    16    39   1
    42    16    40   1
    43    17    41   1
    44    17    42   1
    45    18    43   1
    46    18    44   1
@<TRIPOS>SUBSTRUCTURE
     1  MOL      1

