@<TRIPOS>MOLECULE
2pq9_ligand_050
    36    36
SMALL
GAST_HUCK
****
This file was generated by PARSER (from files_GN.cpp)

@<TRIPOS>ATOM
      1 C1         56.9852    9.7367   29.9961 C.2         1 GG9      -0.0206
      2 C2         55.9923    8.8738   29.6836 C.2         1 GG9      -0.0423
      3 C3         55.9362    8.1992   28.3840 C.3         1 GG9       0.1415
      4 C4         57.3485    7.6087   28.0997 C.3         1 GG9       0.1216
      5 C5         58.4467    8.7340   28.1167 C.3         1 GG9       0.0983
      6 C6         58.0769    9.9482   29.0347 C.3         1 GG9       0.0036
      7 C7         56.9258   10.4792   31.1726 C.2         1 GG9       0.0477
      8 O1         55.6172    9.1067   27.2994 O.3         1 GG9      -0.2592
      9 O2         57.3542    6.9035   26.8640 O.3         1 GG9      -0.3840
     10 O3         59.6853    8.0781   28.4035 O.3         1 GG9      -0.3316
     11 O4         57.5193   11.6890   31.2666 O.co2       1 GG9      -0.5666
     12 O5         56.2473   10.0578   32.2650 O.co2       1 GG9      -0.5666
     13 P1         54.2883    9.9148   27.3850 P.3         1 GG9       0.2044
     14 O6         54.1893   10.7140   28.5800 O.co2       1 GG9      -0.5536
     15 O7         53.1318    9.0690   27.2453 O.co2       1 GG9      -0.5536
     16 O8         54.2798   10.8278   26.2701 O.co2       1 GG9      -0.5536
     17 C8         61.0216    8.6432   28.3162 C.3         1 GG9       0.3058
     18 C9         61.2196    9.6239   27.1159 C.3         1 GG9       0.3020
     19 C10        61.9262    7.4781   28.1179 C.2         1 GG9       0.1145
     20 O9         61.5788    6.2370   28.5375 O.co2       1 GG9      -0.5422
     21 O10        63.2054    7.6417   27.7151 O.co2       1 GG9      -0.5422
     22 P2         61.7348    8.6393   30.8444 P.3         1 GG9       0.2040
     23 O11        61.9152    9.6452   31.8592 O.co2       1 GG9      -0.5537
     24 O12        62.9600    7.8964   30.6941 O.co2       1 GG9      -0.5537
     25 O13        60.7224    7.7247   31.3107 O.co2       1 GG9      -0.5537
     26 O14        61.3472    9.3790   29.5249 O.3         1 GG9      -0.2326
     27 F1         61.3067    8.9486   25.9319 F           1 GG9      -0.2037
     28 F2         60.1759   10.5047   27.0085 F           1 GG9      -0.2037
     29 H1         55.2415    8.6958   30.3163 H           1 GG9       0.0595
     30 H2         55.2167    7.3653   28.4175 H           1 GG9       0.0831
     31 H3         57.5679    6.8835   28.8857 H           1 GG9       0.0674
     32 H4         58.4962    9.1048   27.0927 H           1 GG9       0.0643
     33 H5         58.9731   10.2792   29.5530 H           1 GG9       0.0411
     34 H6         57.7649   10.7763   28.4023 H           1 GG9       0.0411
     35 H7         57.0418    7.5493   26.1937 H           1 GG9       0.2103
     36 H8         62.1012   10.2522   27.2336 H           1 GG9       0.1071
@<TRIPOS>BOND
     1     1     2   2
     2     6     1   1
     3     1     7   1
     4     3     2   1
     5     4     3   1
     6     3     8   1
     7     5     4   1
     8     4     9   1
     9     5     6   1
    10    10     5   1
    11     7    11  ar
    12     7    12  ar
    13     8    13   1
    14    17    10   1
    15    13    14  ar
    16    13    15  ar
    17    13    16  ar
    18    17    18   1
    19    17    19   1
    20    26    17   1
    21    18    27   1
    22    18    28   1
    23    19    20  ar
    24    19    21  ar
    25    22    23  ar
    26    22    24  ar
    27    22    25  ar
    28    22    26   1
    29     2    29   1
    30     3    30   1
    31     4    31   1
    32     5    32   1
    33     6    33   1
    34     6    34   1
    35     9    35   1
    36    18    36   1
@<TRIPOS>SUBSTRUCTURE
     1  GG9      1

