@<TRIPOS>MOLECULE
2pq9_ligand_038
    36    36
SMALL
GAST_HUCK
****
This file was generated by PARSER (from files_GN.cpp)

@<TRIPOS>ATOM
      1 C1         59.5870    8.9733   26.8613 C.2         1 GG9      -0.0206
      2 C2         58.6357    8.2381   26.2416 C.2         1 GG9      -0.0423
      3 C3         57.5049    7.5987   26.9127 C.3         1 GG9       0.1415
      4 C4         57.5655    7.7016   28.4745 C.3         1 GG9       0.1216
      5 C5         58.1110    9.0857   28.9060 C.3         1 GG9       0.0983
      6 C6         59.5358    9.2581   28.2920 C.3         1 GG9       0.0036
      7 C7         60.6607    9.4341   26.1236 C.2         1 GG9       0.0477
      8 O1         57.5047    6.2197   26.4665 O.3         1 GG9      -0.2592
      9 O2         58.4041    6.6742   29.0052 O.3         1 GG9      -0.3840
     10 O3         57.1181   10.0421   28.4706 O.3         1 GG9      -0.3316
     11 O4         60.5902   10.6886   25.6295 O.co2       1 GG9      -0.5666
     12 O5         61.8998    8.9759   26.4027 O.co2       1 GG9      -0.5666
     13 P1         56.1866    5.4029   26.3971 P.3         1 GG9       0.2044
     14 O6         56.2035    4.7910   25.0919 O.co2       1 GG9      -0.5536
     15 O7         54.9572    6.1553   26.5283 O.co2       1 GG9      -0.5536
     16 O8         56.2206    4.3224   27.3536 O.co2       1 GG9      -0.5536
     17 C8         57.1635   11.4692   28.6938 C.3         1 GG9       0.3058
     18 C9         57.5988   11.8216   30.1503 C.3         1 GG9       0.3020
     19 C10        55.7445   11.8750   28.4870 C.2         1 GG9       0.1145
     20 O9         54.7538   11.1858   29.0950 O.co2       1 GG9      -0.5422
     21 O10        55.3676   12.8669   27.6435 O.co2       1 GG9      -0.5422
     22 P2         58.8579   13.2694   27.7134 P.3         1 GG9       0.2040
     23 O11        59.3175   13.6390   29.0330 O.co2       1 GG9      -0.5537
     24 O12        58.2383   14.4043   27.0679 O.co2       1 GG9      -0.5537
     25 O13        60.0802   12.9975   26.9938 O.co2       1 GG9      -0.5537
     26 O14        58.0316   11.9597   27.6375 O.3         1 GG9      -0.2326
     27 F1         56.8370   11.1722   31.0829 F           1 GG9      -0.2037
     28 F2         58.9073   11.4856   30.3843 F           1 GG9      -0.2037
     29 H1         58.6832    8.1213   25.2516 H           1 GG9       0.0595
     30 H2         56.6165    8.1360   26.5542 H           1 GG9       0.0831
     31 H3         56.5600    7.5660   28.8826 H           1 GG9       0.0674
     32 H4         58.1834    9.1088   29.9970 H           1 GG9       0.0643
     33 H5         59.8879   10.2674   28.4975 H           1 GG9       0.0411
     34 H6         60.2311    8.5831   28.7965 H           1 GG9       0.0411
     35 H7         58.5617    6.9288   29.9349 H           1 GG9       0.2103
     36 H8         57.5044   12.8950   30.3202 H           1 GG9       0.1071
@<TRIPOS>BOND
     1     1     2   2
     2     6     1   1
     3     1     7   1
     4     3     2   1
     5     4     3   1
     6     3     8   1
     7     5     4   1
     8     4     9   1
     9     5     6   1
    10    10     5   1
    11     7    11  ar
    12     7    12  ar
    13     8    13   1
    14    17    10   1
    15    13    14  ar
    16    13    15  ar
    17    13    16  ar
    18    17    18   1
    19    17    19   1
    20    26    17   1
    21    18    27   1
    22    18    28   1
    23    19    20  ar
    24    19    21  ar
    25    22    23  ar
    26    22    24  ar
    27    22    25  ar
    28    22    26   1
    29     2    29   1
    30     3    30   1
    31     4    31   1
    32     5    32   1
    33     6    33   1
    34     6    34   1
    35     9    35   1
    36    18    36   1
@<TRIPOS>SUBSTRUCTURE
     1  GG9      1

