@<TRIPOS>MOLECULE
2pq9_ligand_007
    36    36
SMALL
GAST_HUCK
****
This file was generated by PARSER (from files_GN.cpp)

@<TRIPOS>ATOM
      1 C1         60.4191    9.3005   27.9100 C.2         1 GG9      -0.0206
      2 C2         60.5920    8.0443   28.3823 C.2         1 GG9      -0.0423
      3 C3         59.9037    7.5392   29.5735 C.3         1 GG9       0.1415
      4 C4         58.4232    8.0297   29.5275 C.3         1 GG9       0.1216
      5 C5         58.2859    9.5793   29.3293 C.3         1 GG9       0.0983
      6 C6         59.5548   10.2186   28.6638 C.3         1 GG9       0.0036
      7 C7         61.1090    9.7409   26.7738 C.2         1 GG9       0.0477
      8 O1         60.4685    7.7840   30.8894 O.3         1 GG9      -0.2592
      9 O2         57.7390    7.6041   30.7065 O.3         1 GG9      -0.3840
     10 O3         57.1401   10.0093   28.5428 O.3         1 GG9      -0.3316
     11 O4         61.7295    8.8788   25.9399 O.co2       1 GG9      -0.5666
     12 O5         61.2423   11.0525   26.4738 O.co2       1 GG9      -0.5666
     13 P1         61.7709    8.5885   31.1388 P.3         1 GG9       0.2044
     14 O6         61.5217   10.0152   31.0978 O.co2       1 GG9      -0.5536
     15 O7         62.8414    8.2279   30.2307 O.co2       1 GG9      -0.5536
     16 O8         62.2399    8.2924   32.4758 O.co2       1 GG9      -0.5536
     17 C8         55.7534    9.6719   28.7999 C.3         1 GG9       0.3058
     18 C9         54.9377   10.8716   28.2246 C.3         1 GG9       0.3020
     19 C10        55.4319    9.5466   30.2513 C.2         1 GG9       0.1145
     20 O9         56.1270   10.2766   31.1557 O.co2       1 GG9      -0.5422
     21 O10        54.1851    9.1612   30.6441 O.co2       1 GG9      -0.5422
     22 P2         54.2898    7.6483   27.8508 P.3         1 GG9       0.2040
     23 O11        53.2831    8.3532   27.0898 O.co2       1 GG9      -0.5537
     24 O12        53.7263    7.2536   29.1204 O.co2       1 GG9      -0.5537
     25 O13        54.6076    6.4368   27.1298 O.co2       1 GG9      -0.5537
     26 O14        55.6133    8.4456   28.0402 O.3         1 GG9      -0.2326
     27 F1         55.6346   12.0644   28.3355 F           1 GG9      -0.2037
     28 F2         54.6629   10.6966   26.8936 F           1 GG9      -0.2037
     29 H1         61.1893    7.4032   27.8941 H           1 GG9       0.0595
     30 H2         59.8843    6.4473   29.4849 H           1 GG9       0.0831
     31 H3         57.9486    7.5198   28.6797 H           1 GG9       0.0674
     32 H4         58.1888   10.0300   30.3270 H           1 GG9       0.0643
     33 H5         59.2385   11.0711   28.0448 H           1 GG9       0.0411
     34 H6         60.1834   10.6216   29.4765 H           1 GG9       0.0411
     35 H7         58.2073    8.0340   31.4552 H           1 GG9       0.2103
     36 H8         53.9910   10.9972   28.7527 H           1 GG9       0.1071
@<TRIPOS>BOND
     1     1     2   2
     2     6     1   1
     3     1     7   1
     4     3     2   1
     5     4     3   1
     6     3     8   1
     7     5     4   1
     8     4     9   1
     9     5     6   1
    10    10     5   1
    11     7    11  ar
    12     7    12  ar
    13     8    13   1
    14    17    10   1
    15    13    14  ar
    16    13    15  ar
    17    13    16  ar
    18    17    18   1
    19    17    19   1
    20    26    17   1
    21    18    27   1
    22    18    28   1
    23    19    20  ar
    24    19    21  ar
    25    22    23  ar
    26    22    24  ar
    27    22    25  ar
    28    22    26   1
    29     2    29   1
    30     3    30   1
    31     4    31   1
    32     5    32   1
    33     6    33   1
    34     6    34   1
    35     9    35   1
    36    18    36   1
@<TRIPOS>SUBSTRUCTURE
     1  GG9      1

