@<TRIPOS>MOLECULE
2pq9_ligand_021
    36    36
SMALL
GAST_HUCK
****
This file was generated by PARSER (from files_GN.cpp)

@<TRIPOS>ATOM
      1 C1         59.7555    9.0179   27.1854 C.2         1 GG9      -0.0206
      2 C2         58.7092    8.2582   26.7838 C.2         1 GG9      -0.0423
      3 C3         57.6410    7.7888   27.6624 C.3         1 GG9       0.1415
      4 C4         57.8323    8.1431   29.1715 C.3         1 GG9       0.1216
      5 C5         58.5226    9.5199   29.3287 C.3         1 GG9       0.0983
      6 C6         59.8880    9.4558   28.5756 C.3         1 GG9       0.0036
      7 C7         60.7163    9.4058   26.2595 C.2         1 GG9       0.0477
      8 O1         57.4895    6.3547   27.5926 O.3         1 GG9      -0.2592
      9 O2         58.5905    7.1617   29.8855 O.3         1 GG9      -0.3840
     10 O3         57.5834   10.4963   28.8028 O.3         1 GG9      -0.3316
     11 O4         60.5750   10.6134   25.6720 O.co2       1 GG9      -0.5666
     12 O5         61.9994    8.9898   26.4017 O.co2       1 GG9      -0.5666
     13 P1         56.3582    5.7211   26.7324 P.3         1 GG9       0.2044
     14 O6         56.7684    5.5136   25.3690 O.co2       1 GG9      -0.5536
     15 O7         55.1329    6.4825   26.7625 O.co2       1 GG9      -0.5536
     16 O8         56.0824    4.4162   27.2811 O.co2       1 GG9      -0.5536
     17 C8         57.6522   11.9463   28.8974 C.3         1 GG9       0.3058
     18 C9         58.5333   12.5359   27.7167 C.3         1 GG9       0.3020
     19 C10        58.0492   12.3394   30.2848 C.2         1 GG9       0.1145
     20 O9         57.3786   11.7779   31.3155 O.co2       1 GG9      -0.5422
     21 O10        59.1790   13.0062   30.6090 O.co2       1 GG9      -0.5422
     22 P2         55.1966   11.9338   27.8556 P.3         1 GG9       0.2040
     23 O11        54.1596   11.3196   28.6380 O.co2       1 GG9      -0.5537
     24 O12        55.6300   10.9678   26.8770 O.co2       1 GG9      -0.5537
     25 O13        54.6413   13.0485   27.1179 O.co2       1 GG9      -0.5537
     26 O14        56.3180   12.5086   28.7939 O.3         1 GG9      -0.2326
     27 F1         57.7675   13.0691   26.7010 F           1 GG9      -0.2037
     28 F2         59.4330   13.5223   28.0433 F           1 GG9      -0.2037
     29 H1         58.6141    8.0560   25.8109 H           1 GG9       0.0595
     30 H2         56.7355    8.3080   27.3410 H           1 GG9       0.0831
     31 H3         56.8553    8.1813   29.6467 H           1 GG9       0.0674
     32 H4         58.7063    9.7039   30.3880 H           1 GG9       0.0643
     33 H5         60.3671   10.4228   28.6396 H           1 GG9       0.0411
     34 H6         60.5472    8.7536   29.0872 H           1 GG9       0.0411
     35 H7         58.4366    7.3376   30.8411 H           1 GG9       0.2103
     36 H8         59.0992   11.7377   27.2564 H           1 GG9       0.1071
@<TRIPOS>BOND
     1     1     2   2
     2     6     1   1
     3     1     7   1
     4     3     2   1
     5     4     3   1
     6     3     8   1
     7     5     4   1
     8     4     9   1
     9     5     6   1
    10    10     5   1
    11     7    11  ar
    12     7    12  ar
    13     8    13   1
    14    17    10   1
    15    13    14  ar
    16    13    15  ar
    17    13    16  ar
    18    17    18   1
    19    17    19   1
    20    26    17   1
    21    18    27   1
    22    18    28   1
    23    19    20  ar
    24    19    21  ar
    25    22    23  ar
    26    22    24  ar
    27    22    25  ar
    28    22    26   1
    29     2    29   1
    30     3    30   1
    31     4    31   1
    32     5    32   1
    33     6    33   1
    34     6    34   1
    35     9    35   1
    36    18    36   1
@<TRIPOS>SUBSTRUCTURE
     1  GG9      1

