@<TRIPOS>MOLECULE
2pq9_ligand_023
    36    36
SMALL
GAST_HUCK
****
This file was generated by PARSER (from files_GN.cpp)

@<TRIPOS>ATOM
      1 C1         59.6301    9.4568   27.3126 C.2         1 GG9      -0.0206
      2 C2         58.9204    8.3866   26.8755 C.2         1 GG9      -0.0423
      3 C3         57.6322    7.9537   27.4078 C.3         1 GG9       0.1415
      4 C4         57.3745    8.5468   28.8244 C.3         1 GG9       0.1216
      5 C5         57.6136   10.0791   28.7697 C.3         1 GG9       0.0983
      6 C6         59.0887   10.3455   28.3554 C.3         1 GG9       0.0036
      7 C7         60.9035    9.7152   26.8082 C.2         1 GG9       0.0477
      8 O1         57.5612    6.5065   27.5274 O.3         1 GG9      -0.2592
      9 O2         58.2312    7.9119   29.7917 O.3         1 GG9      -0.3840
     10 O3         56.7465   10.6755   27.7648 O.3         1 GG9      -0.3316
     11 O4         61.4637   10.9502   26.8287 O.co2       1 GG9      -0.5666
     12 O5         61.6921    8.7455   26.3041 O.co2       1 GG9      -0.5666
     13 P1         56.4546    5.7407   26.7434 P.3         1 GG9       0.2044
     14 O6         56.2629    4.4300   27.3167 O.co2       1 GG9      -0.5536
     15 O7         56.8605    5.5380   25.3744 O.co2       1 GG9      -0.5536
     16 O8         55.1802    6.4212   26.7413 O.co2       1 GG9      -0.5536
     17 C8         55.8474   11.7802   28.0292 C.3         1 GG9       0.3058
     18 C9         54.9940   12.0128   26.7331 C.3         1 GG9       0.3020
     19 C10        56.6511   12.9931   28.3649 C.2         1 GG9       0.1145
     20 O9         57.5419   12.9689   29.3761 O.co2       1 GG9      -0.5422
     21 O10        56.5417   14.1662   27.6995 O.co2       1 GG9      -0.5422
     22 P2         54.1977   10.1661   29.2778 P.3         1 GG9       0.2040
     23 O11        52.8044   10.4705   29.0379 O.co2       1 GG9      -0.5537
     24 O12        54.2899    9.6522   30.6242 O.co2       1 GG9      -0.5537
     25 O13        54.5912    9.0951   28.3867 O.co2       1 GG9      -0.5537
     26 O14        55.0343   11.4811   29.1936 O.3         1 GG9      -0.2326
     27 F1         53.9101   12.8205   26.9797 F           1 GG9      -0.2037
     28 F2         55.7234   12.5738   25.7083 F           1 GG9      -0.2037
     29 H1         59.2236    7.9164   26.0559 H           1 GG9       0.0595
     30 H2         56.8753    8.3537   26.7258 H           1 GG9       0.0831
     31 H3         56.3359    8.3421   29.1238 H           1 GG9       0.0674
     32 H4         57.4160   10.4938   29.7625 H           1 GG9       0.0643
     33 H5         59.1582   11.3850   28.0187 H           1 GG9       0.0411
     34 H6         59.7136   10.2471   29.2426 H           1 GG9       0.0411
     35 H7         58.1439    8.4379   30.6223 H           1 GG9       0.2103
     36 H8         54.6115   11.0689   26.3506 H           1 GG9       0.1071
@<TRIPOS>BOND
     1     1     2   2
     2     6     1   1
     3     1     7   1
     4     3     2   1
     5     4     3   1
     6     3     8   1
     7     5     4   1
     8     4     9   1
     9     5     6   1
    10    10     5   1
    11     7    11  ar
    12     7    12  ar
    13     8    13   1
    14    17    10   1
    15    13    14  ar
    16    13    15  ar
    17    13    16  ar
    18    17    18   1
    19    17    19   1
    20    26    17   1
    21    18    27   1
    22    18    28   1
    23    19    20  ar
    24    19    21  ar
    25    22    23  ar
    26    22    24  ar
    27    22    25  ar
    28    22    26   1
    29     2    29   1
    30     3    30   1
    31     4    31   1
    32     5    32   1
    33     6    33   1
    34     6    34   1
    35     9    35   1
    36    18    36   1
@<TRIPOS>SUBSTRUCTURE
     1  GG9      1

