@<TRIPOS>MOLECULE
2pq9_ligand_035
    36    36
SMALL
GAST_HUCK
****
This file was generated by PARSER (from files_GN.cpp)

@<TRIPOS>ATOM
      1 C1         55.6491   10.1262   29.4378 C.2         1 GG9      -0.0206
      2 C2         55.7560   11.3540   28.8912 C.2         1 GG9      -0.0423
      3 C3         56.9932   12.1408   28.8292 C.3         1 GG9       0.1415
      4 C4         58.0385   11.6892   29.8891 C.3         1 GG9       0.1216
      5 C5         58.1734   10.1465   29.8480 C.3         1 GG9       0.0983
      6 C6         56.7789    9.5303   30.1715 C.3         1 GG9       0.0036
      7 C7         54.4440    9.4219   29.3502 C.2         1 GG9       0.0477
      8 O1         56.7709   13.5542   29.0126 O.3         1 GG9      -0.2592
      9 O2         57.6775   12.1352   31.1983 O.3         1 GG9      -0.3840
     10 O3         58.6252    9.8080   28.5169 O.3         1 GG9      -0.3316
     11 O4         53.4937    9.7176   28.4282 O.co2       1 GG9      -0.5666
     12 O5         54.2523    8.2639   30.0175 O.co2       1 GG9      -0.5666
     13 P1         56.1549   14.3656   27.8325 P.3         1 GG9       0.2044
     14 O6         55.8970   15.7031   28.3020 O.co2       1 GG9      -0.5536
     15 O7         54.9001   13.8314   27.3650 O.co2       1 GG9      -0.5536
     16 O8         57.0795   14.4597   26.7311 O.co2       1 GG9      -0.5536
     17 C8         59.4291    8.6796   28.0903 C.3         1 GG9       0.3058
     18 C9         60.0516    7.7370   29.1726 C.3         1 GG9       0.3020
     19 C10        60.5484    9.2632   27.2969 C.2         1 GG9       0.1145
     20 O9         60.8839   10.5688   27.3684 O.co2       1 GG9      -0.5422
     21 O10        61.3112    8.4916   26.4922 O.co2       1 GG9      -0.5422
     22 P2         57.2053    7.6688   27.0663 P.3         1 GG9       0.2040
     23 O11        56.7286    6.7573   28.0721 O.co2       1 GG9      -0.5537
     24 O12        56.9229    7.0438   25.7937 O.co2       1 GG9      -0.5537
     25 O13        56.4327    8.8841   27.0654 O.co2       1 GG9      -0.5537
     26 O14        58.7402    7.9092   27.0778 O.3         1 GG9      -0.2326
     27 F1         60.8520    8.4111   30.0630 F           1 GG9      -0.2037
     28 F2         59.1041    7.0595   29.8906 F           1 GG9      -0.2037
     29 H1         54.9764   11.7210   28.3935 H           1 GG9       0.0595
     30 H2         57.4457   11.9601   27.8491 H           1 GG9       0.0831
     31 H3         59.0009   12.1448   29.6559 H           1 GG9       0.0674
     32 H4         58.9085    9.8383   30.5933 H           1 GG9       0.0643
     33 H5         56.8394    8.4663   29.9535 H           1 GG9       0.0411
     34 H6         56.5788    9.6306   31.2445 H           1 GG9       0.0411
     35 H7         58.0974   11.5044   31.8177 H           1 GG9       0.2103
     36 H8         60.6743    6.9802   28.6873 H           1 GG9       0.1071
@<TRIPOS>BOND
     1     1     2   2
     2     6     1   1
     3     1     7   1
     4     3     2   1
     5     4     3   1
     6     3     8   1
     7     5     4   1
     8     4     9   1
     9     5     6   1
    10    10     5   1
    11     7    11  ar
    12     7    12  ar
    13     8    13   1
    14    17    10   1
    15    13    14  ar
    16    13    15  ar
    17    13    16  ar
    18    17    18   1
    19    17    19   1
    20    26    17   1
    21    18    27   1
    22    18    28   1
    23    19    20  ar
    24    19    21  ar
    25    22    23  ar
    26    22    24  ar
    27    22    25  ar
    28    22    26   1
    29     2    29   1
    30     3    30   1
    31     4    31   1
    32     5    32   1
    33     6    33   1
    34     6    34   1
    35     9    35   1
    36    18    36   1
@<TRIPOS>SUBSTRUCTURE
     1  GG9      1

