@<TRIPOS>MOLECULE
2pq9_ligand_008
    36    36
SMALL
GAST_HUCK
****
This file was generated by PARSER (from files_GN.cpp)

@<TRIPOS>ATOM
      1 C1         56.1315    9.4140   30.7267 C.2         1 GG9      -0.0206
      2 C2         55.2385    9.3897   29.7134 C.2         1 GG9      -0.0423
      3 C3         55.6277    9.2918   28.3021 C.3         1 GG9       0.1415
      4 C4         56.9128    8.4223   28.1901 C.3         1 GG9       0.1216
      5 C5         58.0612    9.0475   29.0267 C.3         1 GG9       0.0983
      6 C6         57.5819    9.3492   30.4833 C.3         1 GG9       0.0036
      7 C7         55.6719    9.2697   32.0423 C.2         1 GG9       0.0477
      8 O1         55.8830   10.6071   27.7262 O.3         1 GG9      -0.2592
      9 O2         57.2911    8.2927   26.8261 O.3         1 GG9      -0.3840
     10 O3         59.1861    8.1250   29.0271 O.3         1 GG9      -0.3316
     11 O4         54.8964   10.2332   32.6177 O.co2       1 GG9      -0.5666
     12 O5         56.0984    8.2278   32.8099 O.co2       1 GG9      -0.5666
     13 P1         54.6717   11.5231   27.4037 P.3         1 GG9       0.2044
     14 O6         53.6004   11.4251   28.3658 O.co2       1 GG9      -0.5536
     15 O7         54.1379   11.1581   26.1167 O.co2       1 GG9      -0.5536
     16 O8         55.1092   12.8978   27.3278 O.co2       1 GG9      -0.5536
     17 C8         60.5395    8.5633   29.3577 C.3         1 GG9       0.3058
     18 C9         61.4620    7.3299   29.1060 C.3         1 GG9       0.3020
     19 C10        60.6628    8.9887   30.7881 C.2         1 GG9       0.1145
     20 O9         60.9552   10.2545   31.1451 O.co2       1 GG9      -0.5422
     21 O10        60.6897    8.0840   31.7878 O.co2       1 GG9      -0.5422
     22 P2         60.7848    9.7752   27.0023 P.3         1 GG9       0.2040
     23 O11        62.0859    9.6792   26.3957 O.co2       1 GG9      -0.5537
     24 O12        60.2557   11.0667   26.6342 O.co2       1 GG9      -0.5537
     25 O13        59.9498    8.7550   26.4189 O.co2       1 GG9      -0.5537
     26 O14        60.9284    9.7203   28.5572 O.3         1 GG9      -0.2326
     27 F1         62.7675    7.6015   29.4263 F           1 GG9      -0.2037
     28 F2         61.0589    6.2279   29.8243 F           1 GG9      -0.2037
     29 H1         54.2561    9.3127   29.9266 H           1 GG9       0.0595
     30 H2         54.8456    8.7620   27.7631 H           1 GG9       0.0831
     31 H3         56.7022    7.4197   28.5768 H           1 GG9       0.0674
     32 H4         58.3333    9.9957   28.5546 H           1 GG9       0.0643
     33 H5         58.0016    8.5740   31.1540 H           1 GG9       0.0411
     34 H6         57.9975   10.3355   30.7857 H           1 GG9       0.0411
     35 H7         57.7346    7.4067   26.7786 H           1 GG9       0.2103
     36 H8         61.4243    7.0456   28.0543 H           1 GG9       0.1071
@<TRIPOS>BOND
     1     1     2   2
     2     6     1   1
     3     1     7   1
     4     3     2   1
     5     4     3   1
     6     3     8   1
     7     5     4   1
     8     4     9   1
     9     5     6   1
    10    10     5   1
    11     7    11  ar
    12     7    12  ar
    13     8    13   1
    14    17    10   1
    15    13    14  ar
    16    13    15  ar
    17    13    16  ar
    18    17    18   1
    19    17    19   1
    20    26    17   1
    21    18    27   1
    22    18    28   1
    23    19    20  ar
    24    19    21  ar
    25    22    23  ar
    26    22    24  ar
    27    22    25  ar
    28    22    26   1
    29     2    29   1
    30     3    30   1
    31     4    31   1
    32     5    32   1
    33     6    33   1
    34     6    34   1
    35     9    35   1
    36    18    36   1
@<TRIPOS>SUBSTRUCTURE
     1  GG9      1

