@<TRIPOS>MOLECULE
2pq9_ligand_004
    36    36
SMALL
GAST_HUCK
****
This file was generated by PARSER (from files_GN.cpp)

@<TRIPOS>ATOM
      1 C1         59.2547    9.4583   30.2804 C.2         1 GG9      -0.0206
      2 C2         58.7558   10.7128   30.1506 C.2         1 GG9      -0.0423
      3 C3         57.4473   11.0426   29.5803 C.3         1 GG9       0.1415
      4 C4         56.5200    9.7831   29.4996 C.3         1 GG9       0.1216
      5 C5         57.3186    8.6233   28.8232 C.3         1 GG9       0.0983
      6 C6         58.5215    8.2929   29.7585 C.3         1 GG9       0.0036
      7 C7         60.4248    9.2199   31.0020 C.2         1 GG9       0.0477
      8 O1         57.7226   11.5980   28.2665 O.3         1 GG9      -0.2592
      9 O2         55.3244   10.1347   28.8196 O.3         1 GG9      -0.3840
     10 O3         56.6234    7.3809   28.5482 O.3         1 GG9      -0.3316
     11 O4         61.2717   10.2098   31.3568 O.co2       1 GG9      -0.5666
     12 O5         60.6345    8.0301   31.6092 O.co2       1 GG9      -0.5666
     13 P1         56.7502   12.6307   27.6069 P.3         1 GG9       0.2044
     14 O6         55.3786   12.6393   28.0439 O.co2       1 GG9      -0.5536
     15 O7         56.7153   12.3331   26.1909 O.co2       1 GG9      -0.5536
     16 O8         57.2762   13.9671   27.6677 O.co2       1 GG9      -0.5536
     17 C8         55.6629    7.2055   27.4729 C.3         1 GG9       0.3058
     18 C9         56.1223    7.8273   26.1017 C.3         1 GG9       0.3020
     19 C10        54.3519    7.7447   27.9162 C.2         1 GG9       0.1145
     20 O9         53.4183    8.1474   27.0245 O.co2       1 GG9      -0.5422
     21 O10        53.9074    7.4984   29.1710 O.co2       1 GG9      -0.5422
     22 P2         56.0390    4.7193   26.5298 P.3         1 GG9       0.2040
     23 O11        54.9122    3.9929   25.9593 O.co2       1 GG9      -0.5537
     24 O12        56.7752    3.6986   27.2614 O.co2       1 GG9      -0.5537
     25 O13        56.7317    5.1555   25.3523 O.co2       1 GG9      -0.5537
     26 O14        55.2909    5.8053   27.3560 O.3         1 GG9      -0.2326
     27 F1         55.5436    9.0614   25.8509 F           1 GG9      -0.2037
     28 F2         57.4907    7.9894   26.0260 F           1 GG9      -0.2037
     29 H1         59.2843   11.4877   30.4863 H           1 GG9       0.0595
     30 H2         56.9740   11.7765   30.2419 H           1 GG9       0.0831
     31 H3         56.2322    9.4705   30.5135 H           1 GG9       0.0674
     32 H4         57.7577    9.0000   27.8902 H           1 GG9       0.0643
     33 H5         58.1698    7.7040   30.6062 H           1 GG9       0.0411
     34 H6         59.2184    7.6689   29.1904 H           1 GG9       0.0411
     35 H7         54.9296   10.8472   29.3555 H           1 GG9       0.2103
     36 H8         55.8246    7.1656   25.2804 H           1 GG9       0.1071
@<TRIPOS>BOND
     1     1     2   2
     2     6     1   1
     3     1     7   1
     4     3     2   1
     5     4     3   1
     6     3     8   1
     7     5     4   1
     8     4     9   1
     9     5     6   1
    10    10     5   1
    11     7    11  ar
    12     7    12  ar
    13     8    13   1
    14    17    10   1
    15    13    14  ar
    16    13    15  ar
    17    13    16  ar
    18    17    18   1
    19    17    19   1
    20    26    17   1
    21    18    27   1
    22    18    28   1
    23    19    20  ar
    24    19    21  ar
    25    22    23  ar
    26    22    24  ar
    27    22    25  ar
    28    22    26   1
    29     2    29   1
    30     3    30   1
    31     4    31   1
    32     5    32   1
    33     6    33   1
    34     6    34   1
    35     9    35   1
    36    18    36   1
@<TRIPOS>SUBSTRUCTURE
     1  GG9      1

