@<TRIPOS>MOLECULE
2pq9_ligand_045
    36    36
SMALL
GAST_HUCK
****
This file was generated by PARSER (from files_GN.cpp)

@<TRIPOS>ATOM
      1 C1         54.9374    8.6414   27.7436 C.2         1 GG9      -0.0206
      2 C2         54.5856    7.3901   28.1074 C.2         1 GG9      -0.0423
      3 C3         55.3482    6.2147   27.6860 C.3         1 GG9       0.1415
      4 C4         56.8825    6.5453   27.7426 C.3         1 GG9       0.1216
      5 C5         57.2833    7.9540   27.1708 C.3         1 GG9       0.0983
      6 C6         56.0215    8.7753   26.7712 C.3         1 GG9       0.0036
      7 C7         54.3324    9.7694   28.3240 C.2         1 GG9       0.0477
      8 O1         54.8247    5.8371   26.3926 O.3         1 GG9      -0.2592
      9 O2         57.6648    5.5172   27.1384 O.3         1 GG9      -0.3840
     10 O3         57.9881    8.7490   28.1565 O.3         1 GG9      -0.3316
     11 O4         53.4492    9.6608   29.3306 O.co2       1 GG9      -0.5666
     12 O5         54.6659   11.0244   27.9622 O.co2       1 GG9      -0.5666
     13 P1         55.0588    4.3818   25.8652 P.3         1 GG9       0.2044
     14 O6         55.1251    3.3705   26.8884 O.co2       1 GG9      -0.5536
     15 O7         56.2401    4.3297   25.0354 O.co2       1 GG9      -0.5536
     16 O8         53.9614    4.0332   25.0028 O.co2       1 GG9      -0.5536
     17 C8         59.3962    8.5456   28.4660 C.3         1 GG9       0.3058
     18 C9         59.5702    9.1973   29.8775 C.3         1 GG9       0.3020
     19 C10        60.1934    9.2601   27.4230 C.2         1 GG9       0.1145
     20 O9         60.9795    8.5779   26.5490 O.co2       1 GG9      -0.5422
     21 O10        60.2735   10.6045   27.3824 O.co2       1 GG9      -0.5422
     22 P2         60.9770    6.4718   29.0379 P.3         1 GG9       0.2040
     23 O11        62.1851    7.2417   28.8572 O.co2       1 GG9      -0.5537
     24 O12        61.1441    5.2008   28.3844 O.co2       1 GG9      -0.5537
     25 O13        60.7861    6.1735   30.4401 O.co2       1 GG9      -0.5537
     26 O14        59.6802    7.1143   28.4536 O.3         1 GG9      -0.2326
     27 F1         59.1071   10.4927   29.9332 F           1 GG9      -0.2037
     28 F2         58.8697    8.4794   30.8193 F           1 GG9      -0.2037
     29 H1         53.8437    7.2472   28.7518 H           1 GG9       0.0595
     30 H2         55.1293    5.4211   28.4215 H           1 GG9       0.0831
     31 H3         57.1565    6.5433   28.8016 H           1 GG9       0.0674
     32 H4         57.9028    7.8384   26.2710 H           1 GG9       0.0643
     33 H5         56.3172    9.8116   26.6202 H           1 GG9       0.0411
     34 H6         55.6621    8.4107   25.8036 H           1 GG9       0.0411
     35 H7         57.4012    4.6890   27.5887 H           1 GG9       0.2103
     36 H8         60.6308    9.2010   30.1659 H           1 GG9       0.1071
@<TRIPOS>BOND
     1     1     2   2
     2     6     1   1
     3     1     7   1
     4     3     2   1
     5     4     3   1
     6     3     8   1
     7     5     4   1
     8     4     9   1
     9     5     6   1
    10    10     5   1
    11     7    11  ar
    12     7    12  ar
    13     8    13   1
    14    17    10   1
    15    13    14  ar
    16    13    15  ar
    17    13    16  ar
    18    17    18   1
    19    17    19   1
    20    26    17   1
    21    18    27   1
    22    18    28   1
    23    19    20  ar
    24    19    21  ar
    25    22    23  ar
    26    22    24  ar
    27    22    25  ar
    28    22    26   1
    29     2    29   1
    30     3    30   1
    31     4    31   1
    32     5    32   1
    33     6    33   1
    34     6    34   1
    35     9    35   1
    36    18    36   1
@<TRIPOS>SUBSTRUCTURE
     1  GG9      1

