@<TRIPOS>MOLECULE
2pq9_ligand_001
    36    36
SMALL
GAST_HUCK
****
This file was generated by PARSER (from files_GN.cpp)

@<TRIPOS>ATOM
      1 C1         56.5536   11.9115   28.2227 C.2         1 GG9      -0.0206
      2 C2         55.6232   10.9870   28.5732 C.2         1 GG9      -0.0423
      3 C3         55.9217    9.7389   29.2766 C.3         1 GG9       0.1415
      4 C4         57.3464    9.7709   29.9075 C.3         1 GG9       0.1216
      5 C5         58.3658   10.2012   28.8083 C.3         1 GG9       0.0983
      6 C6         57.9908   11.6775   28.4632 C.3         1 GG9       0.0036
      7 C7         56.1561   13.1064   27.6215 C.2         1 GG9       0.0477
      8 O1         55.8861    8.5950   28.3833 O.3         1 GG9      -0.2592
      9 O2         57.6328    8.5268   30.5394 O.3         1 GG9      -0.3840
     10 O3         59.7539   10.0996   29.2331 O.3         1 GG9      -0.3316
     11 O4         56.9904   14.1669   27.5525 O.co2       1 GG9      -0.5666
     12 O5         54.9849   13.2219   26.9506 O.co2       1 GG9      -0.5666
     13 P1         54.5343    7.8759   28.0904 P.3         1 GG9       0.2044
     14 O6         53.6270    8.6159   27.2497 O.co2       1 GG9      -0.5536
     15 O7         53.8412    7.5153   29.3014 O.co2       1 GG9      -0.5536
     16 O8         54.8355    6.6349   27.4179 O.co2       1 GG9      -0.5536
     17 C8         60.7378    9.2694   28.5383 C.3         1 GG9       0.3058
     18 C9         62.0192    9.2020   29.4463 C.3         1 GG9       0.3020
     19 C10        61.1479    9.8155   27.2110 C.2         1 GG9       0.1145
     20 O9         60.2934   10.5679   26.4856 O.co2       1 GG9      -0.5422
     21 O10        61.9906    9.0851   26.4441 O.co2       1 GG9      -0.5422
     22 P2         59.8207    6.8453   29.1109 P.3         1 GG9       0.2040
     23 O11        60.0722    7.0594   30.5106 O.co2       1 GG9      -0.5537
     24 O12        60.5425    5.6681   28.6979 O.co2       1 GG9      -0.5537
     25 O13        58.4196    6.5688   28.8733 O.co2       1 GG9      -0.5537
     26 O14        60.2346    7.9715   28.1361 O.3         1 GG9      -0.2326
     27 F1         61.7318    9.3724   30.7835 F           1 GG9      -0.2037
     28 F2         62.6814    7.9985   29.3190 F           1 GG9      -0.2037
     29 H1         54.6612   11.1416   28.3696 H           1 GG9       0.0595
     30 H2         55.2155    9.6240   30.1100 H           1 GG9       0.0831
     31 H3         57.3487   10.5157   30.7148 H           1 GG9       0.0674
     32 H4         58.2028    9.5954   27.9109 H           1 GG9       0.0643
     33 H5         58.2979   12.3278   29.2869 H           1 GG9       0.0411
     34 H6         58.5557   11.9825   27.5810 H           1 GG9       0.0411
     35 H7         58.2248    8.7698   31.2799 H           1 GG9       0.2103
     36 H8         62.7205   10.0004   29.1837 H           1 GG9       0.1071
@<TRIPOS>BOND
     1     1     2   2
     2     6     1   1
     3     1     7   1
     4     3     2   1
     5     4     3   1
     6     3     8   1
     7     5     4   1
     8     4     9   1
     9     5     6   1
    10    10     5   1
    11     7    11  ar
    12     7    12  ar
    13     8    13   1
    14    17    10   1
    15    13    14  ar
    16    13    15  ar
    17    13    16  ar
    18    17    18   1
    19    17    19   1
    20    26    17   1
    21    18    27   1
    22    18    28   1
    23    19    20  ar
    24    19    21  ar
    25    22    23  ar
    26    22    24  ar
    27    22    25  ar
    28    22    26   1
    29     2    29   1
    30     3    30   1
    31     4    31   1
    32     5    32   1
    33     6    33   1
    34     6    34   1
    35     9    35   1
    36    18    36   1
@<TRIPOS>SUBSTRUCTURE
     1  GG9      1

