@<TRIPOS>MOLECULE
2pq9_ligand_048
    36    36
SMALL
GAST_HUCK
****
This file was generated by PARSER (from files_GN.cpp)

@<TRIPOS>ATOM
      1 C1         59.7535    8.8187   30.1128 C.2         1 GG9      -0.0206
      2 C2         59.2927    7.6616   29.5769 C.2         1 GG9      -0.0423
      3 C3         58.4118    7.6451   28.4037 C.3         1 GG9       0.1415
      4 C4         57.2803    8.7014   28.5961 C.3         1 GG9       0.1216
      5 C5         57.8001   10.0769   29.1540 C.3         1 GG9       0.0983
      6 C6         59.3207   10.0721   29.4889 C.3         1 GG9       0.0036
      7 C7         60.5793    8.8602   31.2351 C.2         1 GG9       0.0477
      8 O1         57.9220    6.3029   28.1465 O.3         1 GG9      -0.2592
      9 O2         56.2525    8.1737   29.4423 O.3         1 GG9      -0.3840
     10 O3         57.4421   11.0718   28.1677 O.3         1 GG9      -0.3316
     11 O4         60.8311    7.7954   32.0216 O.co2       1 GG9      -0.5666
     12 O5         61.2986    9.9590   31.5499 O.co2       1 GG9      -0.5666
     13 P1         56.7463    6.0821   27.1368 P.3         1 GG9       0.2044
     14 O6         55.4675    6.5659   27.5917 O.co2       1 GG9      -0.5536
     15 O7         56.5589    4.6677   26.9388 O.co2       1 GG9      -0.5536
     16 O8         56.9936    6.6520   25.8370 O.co2       1 GG9      -0.5536
     17 C8         57.5975   12.5024   28.2908 C.3         1 GG9       0.3058
     18 C9         57.6320   13.0422   29.7579 C.3         1 GG9       0.3020
     19 C10        56.3696   13.0512   27.6531 C.2         1 GG9       0.1145
     20 O9         55.1684   12.4567   27.8262 O.co2       1 GG9      -0.5422
     21 O10        56.3267   14.3550   27.3250 O.co2       1 GG9      -0.5422
     22 P2         59.6281   12.1217   26.6227 P.3         1 GG9       0.2040
     23 O11        59.1246   12.2014   25.2718 O.co2       1 GG9      -0.5537
     24 O12        59.7713   10.7238   26.9488 O.co2       1 GG9      -0.5537
     25 O13        60.9738   12.6328   26.6451 O.co2       1 GG9      -0.5537
     26 O14        58.7999   12.9862   27.6370 O.3         1 GG9      -0.2326
     27 F1         57.0467   12.1498   30.6259 F           1 GG9      -0.2037
     28 F2         58.9123   13.2981   30.1998 F           1 GG9      -0.2037
     29 H1         59.5407    6.7930   29.9851 H           1 GG9       0.0595
     30 H2         59.0308    7.9633   27.5574 H           1 GG9       0.0831
     31 H3         56.8229    8.8534   27.6088 H           1 GG9       0.0674
     32 H4         57.2720   10.2841   30.0916 H           1 GG9       0.0643
     33 H5         59.8995   10.2034   28.5860 H           1 GG9       0.0411
     34 H6         59.5305   10.9323   30.1153 H           1 GG9       0.0411
     35 H7         55.5393    8.8433   29.4261 H           1 GG9       0.2103
     36 H8         57.0922   13.9920   29.8447 H           1 GG9       0.1071
@<TRIPOS>BOND
     1     1     2   2
     2     6     1   1
     3     1     7   1
     4     3     2   1
     5     4     3   1
     6     3     8   1
     7     5     4   1
     8     4     9   1
     9     5     6   1
    10    10     5   1
    11     7    11  ar
    12     7    12  ar
    13     8    13   1
    14    17    10   1
    15    13    14  ar
    16    13    15  ar
    17    13    16  ar
    18    17    18   1
    19    17    19   1
    20    26    17   1
    21    18    27   1
    22    18    28   1
    23    19    20  ar
    24    19    21  ar
    25    22    23  ar
    26    22    24  ar
    27    22    25  ar
    28    22    26   1
    29     2    29   1
    30     3    30   1
    31     4    31   1
    32     5    32   1
    33     6    33   1
    34     6    34   1
    35     9    35   1
    36    18    36   1
@<TRIPOS>SUBSTRUCTURE
     1  GG9      1

