@<TRIPOS>MOLECULE
2pq9_ligand_003
    36    36
SMALL
GAST_HUCK
****
This file was generated by PARSER (from files_GN.cpp)

@<TRIPOS>ATOM
      1 C1         55.6510    9.1518   28.5729 C.2         1 GG9      -0.0206
      2 C2         55.8377   10.4877   28.4676 C.2         1 GG9      -0.0423
      3 C3         57.1700   11.0921   28.5467 C.3         1 GG9       0.1415
      4 C4         57.9422   10.4582   29.7311 C.3         1 GG9       0.1216
      5 C5         57.9255    8.8754   29.7162 C.3         1 GG9       0.0983
      6 C6         56.8379    8.3091   28.7372 C.3         1 GG9       0.0036
      7 C7         54.3694    8.6246   28.4490 C.2         1 GG9       0.0477
      8 O1         57.1530   12.5296   28.7193 O.3         1 GG9      -0.2592
      9 O2         57.3610   10.9568   30.9420 O.3         1 GG9      -0.3840
     10 O3         59.1415    8.1741   29.3531 O.3         1 GG9      -0.3316
     11 O4         53.5548    8.9610   27.4179 O.co2       1 GG9      -0.5666
     12 O5         53.9117    7.6427   29.2625 O.co2       1 GG9      -0.5666
     13 P1         56.5781   13.4128   27.5678 P.3         1 GG9       0.2044
     14 O6         55.1982   13.1213   27.2677 O.co2       1 GG9      -0.5536
     15 O7         57.3663   13.3336   26.3649 O.co2       1 GG9      -0.5536
     16 O8         56.6144   14.7754   28.0161 O.co2       1 GG9      -0.5536
     17 C8         60.5066    8.5745   29.6110 C.3         1 GG9       0.3058
     18 C9         61.4338    7.3325   29.3858 C.3         1 GG9       0.3020
     19 C10        60.7014    9.0301   31.0157 C.2         1 GG9       0.1145
     20 O9         60.7714    8.1622   32.0499 O.co2       1 GG9      -0.5422
     21 O10        61.0411   10.3077   31.2890 O.co2       1 GG9      -0.5422
     22 P2         60.6789    9.7170   27.2125 P.3         1 GG9       0.2040
     23 O11        60.1681   11.0105   26.8405 O.co2       1 GG9      -0.5537
     24 O12        59.8156    8.6957   26.6726 O.co2       1 GG9      -0.5537
     25 O13        61.9563    9.5959   26.5565 O.co2       1 GG9      -0.5537
     26 O14        60.8935    9.6839   28.7604 O.3         1 GG9      -0.2326
     27 F1         61.0972    6.2688   30.1846 F           1 GG9      -0.2037
     28 F2         61.3754    6.8484   28.1000 F           1 GG9      -0.2037
     29 H1         55.0476   11.0933   28.4103 H           1 GG9       0.0595
     30 H2         57.7275   10.8275   27.6467 H           1 GG9       0.0831
     31 H3         58.9635   10.8373   29.7084 H           1 GG9       0.0674
     32 H4         57.6750    8.5391   30.7219 H           1 GG9       0.0643
     33 H5         57.2737    8.2212   27.7387 H           1 GG9       0.0411
     34 H6         56.5722    7.2986   29.0398 H           1 GG9       0.0411
     35 H7         58.0541   10.8325   31.6225 H           1 GG9       0.2103
     36 H8         62.4708    7.6024   29.5845 H           1 GG9       0.1071
@<TRIPOS>BOND
     1     1     2   2
     2     6     1   1
     3     1     7   1
     4     3     2   1
     5     4     3   1
     6     3     8   1
     7     5     4   1
     8     4     9   1
     9     5     6   1
    10    10     5   1
    11     7    11  ar
    12     7    12  ar
    13     8    13   1
    14    17    10   1
    15    13    14  ar
    16    13    15  ar
    17    13    16  ar
    18    17    18   1
    19    17    19   1
    20    26    17   1
    21    18    27   1
    22    18    28   1
    23    19    20  ar
    24    19    21  ar
    25    22    23  ar
    26    22    24  ar
    27    22    25  ar
    28    22    26   1
    29     2    29   1
    30     3    30   1
    31     4    31   1
    32     5    32   1
    33     6    33   1
    34     6    34   1
    35     9    35   1
    36    18    36   1
@<TRIPOS>SUBSTRUCTURE
     1  GG9      1

