@<TRIPOS>MOLECULE
2pq9_ligand_040
    36    36
SMALL
GAST_HUCK
****
This file was generated by PARSER (from files_GN.cpp)

@<TRIPOS>ATOM
      1 C1         58.3849   10.4583   29.7884 C.2         1 GG9      -0.0206
      2 C2         58.9918   10.5171   28.5839 C.2         1 GG9      -0.0423
      3 C3         59.3286    9.3084   27.8239 C.3         1 GG9       0.1415
      4 C4         58.1022    8.3592   27.7879 C.3         1 GG9       0.1216
      5 C5         57.4641    8.1579   29.2053 C.3         1 GG9       0.0983
      6 C6         57.9911    9.1411   30.3050 C.3         1 GG9       0.0036
      7 C7         58.2294   11.5957   30.5789 C.2         1 GG9       0.0477
      8 O1         60.3869    8.5475   28.4437 O.3         1 GG9      -0.2592
      9 O2         58.4773    7.0995   27.2289 O.3         1 GG9      -0.3840
     10 O3         56.0354    7.9983   29.1392 O.3         1 GG9      -0.3316
     11 O4         59.0568   12.6673   30.4884 O.co2       1 GG9      -0.5666
     12 O5         57.3328   11.6256   31.5889 O.co2       1 GG9      -0.5666
     13 P1         61.8583    8.8356   28.0345 P.3         1 GG9       0.2044
     14 O6         62.0250    9.0690   26.6270 O.co2       1 GG9      -0.5536
     15 O7         62.5868    7.6384   28.3506 O.co2       1 GG9      -0.5536
     16 O8         62.4282    9.9048   28.8120 O.co2       1 GG9      -0.5536
     17 C8         55.0266    9.0238   28.9610 C.3         1 GG9       0.3058
     18 C9         54.6087    9.6175   30.3555 C.3         1 GG9       0.3020
     19 C10        53.8906    8.2205   28.4293 C.2         1 GG9       0.1145
     20 O9         53.4163    7.1657   29.1317 O.co2       1 GG9      -0.5422
     21 O10        53.1342    8.6603   27.4002 O.co2       1 GG9      -0.5422
     22 P2         54.8096   11.3679   27.6746 P.3         1 GG9       0.2040
     23 O11        53.4959   11.5539   28.2338 O.co2       1 GG9      -0.5537
     24 O12        54.7132   11.5316   26.2473 O.co2       1 GG9      -0.5537
     25 O13        55.6987   12.4042   28.1424 O.co2       1 GG9      -0.5537
     26 O14        55.4894    9.9950   27.9747 O.3         1 GG9      -0.2326
     27 F1         54.5511    8.6495   31.3405 F           1 GG9      -0.2037
     28 F2         55.4870   10.5891   30.7996 F           1 GG9      -0.2037
     29 H1         59.1851   11.4007   28.1675 H           1 GG9       0.0595
     30 H2         59.5828    9.5806   26.7944 H           1 GG9       0.0831
     31 H3         57.3746    8.7747   27.0920 H           1 GG9       0.0674
     32 H4         57.7967    7.1792   29.5561 H           1 GG9       0.0643
     33 H5         57.2639    9.1869   31.1146 H           1 GG9       0.0411
     34 H6         58.8968    8.7179   30.7469 H           1 GG9       0.0411
     35 H7         57.6968    6.5176   27.3449 H           1 GG9       0.2103
     36 H8         53.6216   10.0766   30.2962 H           1 GG9       0.1071
@<TRIPOS>BOND
     1     1     2   2
     2     6     1   1
     3     1     7   1
     4     3     2   1
     5     4     3   1
     6     3     8   1
     7     5     4   1
     8     4     9   1
     9     5     6   1
    10    10     5   1
    11     7    11  ar
    12     7    12  ar
    13     8    13   1
    14    17    10   1
    15    13    14  ar
    16    13    15  ar
    17    13    16  ar
    18    17    18   1
    19    17    19   1
    20    26    17   1
    21    18    27   1
    22    18    28   1
    23    19    20  ar
    24    19    21  ar
    25    22    23  ar
    26    22    24  ar
    27    22    25  ar
    28    22    26   1
    29     2    29   1
    30     3    30   1
    31     4    31   1
    32     5    32   1
    33     6    33   1
    34     6    34   1
    35     9    35   1
    36    18    36   1
@<TRIPOS>SUBSTRUCTURE
     1  GG9      1

