@<TRIPOS>MOLECULE
2pq9_ligand_039
    36    36
SMALL
GAST_HUCK
****
This file was generated by PARSER (from files_GN.cpp)

@<TRIPOS>ATOM
      1 C1         56.3164    9.6527   31.1802 C.2         1 GG9      -0.0206
      2 C2         55.6120   10.7286   30.7393 C.2         1 GG9      -0.0423
      3 C3         55.8138   11.2999   29.4114 C.3         1 GG9       0.1415
      4 C4         55.7419   10.0795   28.4380 C.3         1 GG9       0.1216
      5 C5         56.8766    9.0428   28.7705 C.3         1 GG9       0.0983
      6 C6         57.3555    9.1313   30.2714 C.3         1 GG9       0.0036
      7 C7         56.0134    9.0714   32.4021 C.2         1 GG9       0.0477
      8 O1         57.0635   12.0179   29.5097 O.3         1 GG9      -0.2592
      9 O2         55.7639   10.5617   27.0933 O.3         1 GG9      -0.3840
     10 O3         56.5468    7.6533   28.5908 O.3         1 GG9      -0.3316
     11 O4         55.4733    9.7773   33.4271 O.co2       1 GG9      -0.5666
     12 O5         56.2437    7.7668   32.6512 O.co2       1 GG9      -0.5666
     13 P1         57.6969   12.7368   28.2887 P.3         1 GG9       0.2044
     14 O6         56.9287   13.8323   27.7338 O.co2       1 GG9      -0.5536
     15 O7         58.0823   11.8136   27.2505 O.co2       1 GG9      -0.5536
     16 O8         58.9535   13.2730   28.7602 O.co2       1 GG9      -0.5536
     17 C8         55.7846    7.0312   27.5238 C.3         1 GG9       0.3058
     18 C9         56.2873    7.4893   26.1119 C.3         1 GG9       0.3020
     19 C10        54.3666    7.3299   27.8341 C.2         1 GG9       0.1145
     20 O9         53.5709    8.0037   26.9855 O.co2       1 GG9      -0.5422
     21 O10        53.8960    7.1743   29.0992 O.co2       1 GG9      -0.5422
     22 P2         56.1178    4.5305   26.7057 P.3         1 GG9       0.2040
     23 O11        56.3859    3.2526   27.3209 O.co2       1 GG9      -0.5537
     24 O12        57.2297    4.8205   25.8267 O.co2       1 GG9      -0.5537
     25 O13        54.9100    4.4277   25.9277 O.co2       1 GG9      -0.5537
     26 O14        56.0436    5.6249   27.8046 O.3         1 GG9      -0.2326
     27 F1         57.6372    7.7826   26.1467 F           1 GG9      -0.2037
     28 F2         56.0730    6.5276   25.1501 F           1 GG9      -0.2037
     29 H1         54.8395   11.0500   31.2681 H           1 GG9       0.0595
     30 H2         54.9972   11.9862   29.1749 H           1 GG9       0.0831
     31 H3         54.7652    9.5942   28.5862 H           1 GG9       0.0674
     32 H4         57.7332    9.2651   28.1355 H           1 GG9       0.0643
     33 H5         57.7558    8.1719   30.6055 H           1 GG9       0.0411
     34 H6         58.2057    9.8230   30.3138 H           1 GG9       0.0411
     35 H7         54.8232   10.8464   26.9016 H           1 GG9       0.2103
     36 H8         55.7570    8.3869   25.7994 H           1 GG9       0.1071
@<TRIPOS>BOND
     1     1     2   2
     2     6     1   1
     3     1     7   1
     4     3     2   1
     5     4     3   1
     6     3     8   1
     7     5     4   1
     8     4     9   1
     9     5     6   1
    10    10     5   1
    11     7    11  ar
    12     7    12  ar
    13     8    13   1
    14    17    10   1
    15    13    14  ar
    16    13    15  ar
    17    13    16  ar
    18    17    18   1
    19    17    19   1
    20    26    17   1
    21    18    27   1
    22    18    28   1
    23    19    20  ar
    24    19    21  ar
    25    22    23  ar
    26    22    24  ar
    27    22    25  ar
    28    22    26   1
    29     2    29   1
    30     3    30   1
    31     4    31   1
    32     5    32   1
    33     6    33   1
    34     6    34   1
    35     9    35   1
    36    18    36   1
@<TRIPOS>SUBSTRUCTURE
     1  GG9      1

