@<TRIPOS>MOLECULE
2pq9_ligand_031
    36    36
SMALL
GAST_HUCK
****
This file was generated by PARSER (from files_GN.cpp)

@<TRIPOS>ATOM
      1 C1         57.1310   12.1981   28.1870 C.2         1 GG9      -0.0206
      2 C2         58.3450   11.7622   28.6119 C.2         1 GG9      -0.0423
      3 C3         58.5977   10.4701   29.2414 C.3         1 GG9       0.1415
      4 C4         57.3088    9.9168   29.9063 C.3         1 GG9       0.1216
      5 C5         56.1572    9.9207   28.8700 C.3         1 GG9       0.0983
      6 C6         55.9155   11.3989   28.4252 C.3         1 GG9       0.0036
      7 C7         57.0071   13.4491   27.5848 C.2         1 GG9       0.0477
      8 O1         59.6516   10.5834   30.2280 O.3         1 GG9      -0.2592
      9 O2         56.9422   10.7090   31.0362 O.3         1 GG9      -0.3840
     10 O3         56.4257    9.1778   27.6543 O.3         1 GG9      -0.3316
     11 O4         55.8003   13.9506   27.2496 O.co2       1 GG9      -0.5666
     12 O5         58.0600   14.2241   27.2362 O.co2       1 GG9      -0.5666
     13 P1         60.4971    9.3047   30.5343 P.3         1 GG9       0.2044
     14 O6         61.5692    9.1434   29.5853 O.co2       1 GG9      -0.5536
     15 O7         59.7802    8.0604   30.6805 O.co2       1 GG9      -0.5536
     16 O8         61.1054    9.5381   31.8193 O.co2       1 GG9      -0.5536
     17 C8         56.5968    7.7444   27.5187 C.3         1 GG9       0.3058
     18 C9         57.8276    7.2358   28.3297 C.3         1 GG9       0.3020
     19 C10        56.8941    7.5357   26.0818 C.2         1 GG9       0.1145
     20 O9         58.0756    7.9338   25.5534 O.co2       1 GG9      -0.5422
     21 O10        56.1610    6.6667   25.3503 O.co2       1 GG9      -0.5422
     22 P2         54.0048    7.4265   27.8742 P.3         1 GG9       0.2040
     23 O11        53.1051    6.4972   27.2225 O.co2       1 GG9      -0.5537
     24 O12        53.7193    8.7803   27.4731 O.co2       1 GG9      -0.5537
     25 O13        53.6417    7.3267   29.2757 O.co2       1 GG9      -0.5537
     26 O14        55.4776    6.9317   27.9517 O.3         1 GG9      -0.2326
     27 F1         58.1408    5.9328   28.0293 F           1 GG9      -0.2037
     28 F2         58.9458    8.0008   28.1188 F           1 GG9      -0.2037
     29 H1         59.1504   12.2990   28.4006 H           1 GG9       0.0595
     30 H2         58.9020    9.8016   28.4230 H           1 GG9       0.0831
     31 H3         57.4543    8.9039   30.2892 H           1 GG9       0.0674
     32 H4         55.2440    9.5522   29.3553 H           1 GG9       0.0643
     33 H5         55.3091   11.3873   27.5103 H           1 GG9       0.0411
     34 H6         55.3133   11.8976   29.1881 H           1 GG9       0.0411
     35 H7         57.7279   10.7015   31.6279 H           1 GG9       0.2103
     36 H8         57.6086    7.2587   29.3891 H           1 GG9       0.1071
@<TRIPOS>BOND
     1     1     2   2
     2     6     1   1
     3     1     7   1
     4     3     2   1
     5     4     3   1
     6     3     8   1
     7     5     4   1
     8     4     9   1
     9     5     6   1
    10    10     5   1
    11     7    11  ar
    12     7    12  ar
    13     8    13   1
    14    17    10   1
    15    13    14  ar
    16    13    15  ar
    17    13    16  ar
    18    17    18   1
    19    17    19   1
    20    26    17   1
    21    18    27   1
    22    18    28   1
    23    19    20  ar
    24    19    21  ar
    25    22    23  ar
    26    22    24  ar
    27    22    25  ar
    28    22    26   1
    29     2    29   1
    30     3    30   1
    31     4    31   1
    32     5    32   1
    33     6    33   1
    34     6    34   1
    35     9    35   1
    36    18    36   1
@<TRIPOS>SUBSTRUCTURE
     1  GG9      1

