@<TRIPOS>MOLECULE
2pq9_ligand_024
    36    36
SMALL
GAST_HUCK
****
This file was generated by PARSER (from files_GN.cpp)

@<TRIPOS>ATOM
      1 C1         55.7405    8.6592   28.3231 C.2         1 GG9      -0.0206
      2 C2         55.9301    9.8834   28.8599 C.2         1 GG9      -0.0423
      3 C3         57.2208   10.3167   29.3798 C.3         1 GG9       0.1415
      4 C4         57.8963    9.0942   30.0757 C.3         1 GG9       0.1216
      5 C5         58.1693    8.0074   28.9858 C.3         1 GG9       0.0983
      6 C6         56.8250    7.6563   28.2551 C.3         1 GG9       0.0036
      7 C7         54.4603    8.2375   28.0087 C.2         1 GG9       0.0477
      8 O1         57.0720   11.4271   30.2980 O.3         1 GG9      -0.2592
      9 O2         57.0735    8.5685   31.1196 O.3         1 GG9      -0.3840
     10 O3         59.1166    8.4280   27.9656 O.3         1 GG9      -0.3316
     11 O4         53.7175    8.9404   27.1266 O.co2       1 GG9      -0.5666
     12 O5         53.7611    7.6461   29.0035 O.co2       1 GG9      -0.5666
     13 P1         58.3246   12.3334   30.5294 P.3         1 GG9       0.2044
     14 O6         58.6695   13.0460   29.3235 O.co2       1 GG9      -0.5536
     15 O7         59.4981   11.6305   30.9912 O.co2       1 GG9      -0.5536
     16 O8         58.0193   13.3417   31.5142 O.co2       1 GG9      -0.5536
     17 C8         60.5227    8.7117   28.2052 C.3         1 GG9       0.3058
     18 C9         60.8533    9.7225   27.0650 C.3         1 GG9       0.3020
     19 C10        61.3126    7.4475   28.1017 C.2         1 GG9       0.1145
     20 O9         62.6590    7.5190   27.9895 O.co2       1 GG9      -0.5422
     21 O10        60.8233    6.2841   28.5773 O.co2       1 GG9      -0.5422
     22 P2         61.8030    9.2634   30.5069 P.3         1 GG9       0.2040
     23 O11        63.0063    9.9887   30.1642 O.co2       1 GG9      -0.5537
     24 O12        62.0673    7.9023   30.9027 O.co2       1 GG9      -0.5537
     25 O13        61.2980    9.8926   31.7001 O.co2       1 GG9      -0.5537
     26 O14        60.6423    9.4020   29.4735 O.3         1 GG9      -0.2326
     27 F1         62.1066   10.2715   27.1698 F           1 GG9      -0.2037
     28 F2         60.7524    9.1512   25.8194 F           1 GG9      -0.2037
     29 H1         55.1542   10.4997   28.9793 H           1 GG9       0.0595
     30 H2         57.8069   10.6095   28.4971 H           1 GG9       0.0831
     31 H3         58.8174    9.3970   30.5718 H           1 GG9       0.0674
     32 H4         58.5484    7.1078   29.4767 H           1 GG9       0.0643
     33 H5         57.0185    7.4591   27.1927 H           1 GG9       0.0411
     34 H6         56.4629    6.7159   28.6794 H           1 GG9       0.0411
     35 H7         56.8639    9.3382   31.6953 H           1 GG9       0.2103
     36 H8         60.1397   10.5503   27.0998 H           1 GG9       0.1071
@<TRIPOS>BOND
     1     1     2   2
     2     6     1   1
     3     1     7   1
     4     3     2   1
     5     4     3   1
     6     3     8   1
     7     5     4   1
     8     4     9   1
     9     5     6   1
    10    10     5   1
    11     7    11  ar
    12     7    12  ar
    13     8    13   1
    14    17    10   1
    15    13    14  ar
    16    13    15  ar
    17    13    16  ar
    18    17    18   1
    19    17    19   1
    20    26    17   1
    21    18    27   1
    22    18    28   1
    23    19    20  ar
    24    19    21  ar
    25    22    23  ar
    26    22    24  ar
    27    22    25  ar
    28    22    26   1
    29     2    29   1
    30     3    30   1
    31     4    31   1
    32     5    32   1
    33     6    33   1
    34     6    34   1
    35     9    35   1
    36    18    36   1
@<TRIPOS>SUBSTRUCTURE
     1  GG9      1

