@<TRIPOS>MOLECULE
2pq9_ligand_028
    36    36
SMALL
GAST_HUCK
****
This file was generated by PARSER (from files_GN.cpp)

@<TRIPOS>ATOM
      1 C1         54.7661   10.6595   27.7417 C.2         1 GG9      -0.0206
      2 C2         53.9574   10.5271   28.8126 C.2         1 GG9      -0.0423
      3 C3         54.2320    9.5194   29.8403 C.3         1 GG9       0.1415
      4 C4         55.7469    9.6671   30.1857 C.3         1 GG9       0.1216
      5 C5         56.6226    9.3706   28.9159 C.3         1 GG9       0.0983
      6 C6         55.8650    9.7063   27.5788 C.3         1 GG9       0.0036
      7 C7         54.5716   11.6810   26.8344 C.2         1 GG9       0.0477
      8 O1         54.0357    8.1148   29.5098 O.3         1 GG9      -0.2592
      9 O2         56.0925    8.8111   31.2718 O.3         1 GG9      -0.3840
     10 O3         57.8844   10.0803   28.8621 O.3         1 GG9      -0.3316
     11 O4         53.7263   11.4651   25.7983 O.co2       1 GG9      -0.5666
     12 O5         54.8029   12.9689   27.1868 O.co2       1 GG9      -0.5666
     13 P1         53.3907    7.5580   28.1969 P.3         1 GG9       0.2044
     14 O6         54.3701    6.6507   27.6513 O.co2       1 GG9      -0.5536
     15 O7         53.1678    8.5036   27.1372 O.co2       1 GG9      -0.5536
     16 O8         52.1809    6.7851   28.3606 O.co2       1 GG9      -0.5536
     17 C8         59.0629    9.9148   29.7029 C.3         1 GG9       0.3058
     18 C9         59.2828    8.5427   30.4410 C.3         1 GG9       0.3020
     19 C10        59.0602   11.0156   30.7007 C.2         1 GG9       0.1145
     20 O9         58.0548   11.9178   30.7892 O.co2       1 GG9      -0.5422
     21 O10        60.1590   11.2613   31.4474 O.co2       1 GG9      -0.5422
     22 P2         60.5604    9.5189   27.5708 P.3         1 GG9       0.2040
     23 O11        61.9997    9.4451   27.5036 O.co2       1 GG9      -0.5537
     24 O12        60.1389   10.2903   26.4255 O.co2       1 GG9      -0.5537
     25 O13        60.0748    8.1712   27.4285 O.co2       1 GG9      -0.5537
     26 O14        60.2352   10.2399   28.9139 O.3         1 GG9      -0.2326
     27 F1         58.6622    7.4733   29.8536 F           1 GG9      -0.2037
     28 F2         60.6188    8.2216   30.5098 F           1 GG9      -0.2037
     29 H1         53.1800   11.1387   28.9407 H           1 GG9       0.0595
     30 H2         53.6353    9.7493   30.7249 H           1 GG9       0.0831
     31 H3         55.9331   10.6935   30.5142 H           1 GG9       0.0674
     32 H4         56.8263    8.2956   28.8908 H           1 GG9       0.0643
     33 H5         56.5738   10.0474   26.8321 H           1 GG9       0.0411
     34 H6         55.4372    8.7824   27.1711 H           1 GG9       0.0411
     35 H7         56.0568    9.3900   32.0633 H           1 GG9       0.2103
     36 H8         58.9372    8.6010   31.4685 H           1 GG9       0.1071
@<TRIPOS>BOND
     1     1     2   2
     2     6     1   1
     3     1     7   1
     4     3     2   1
     5     4     3   1
     6     3     8   1
     7     5     4   1
     8     4     9   1
     9     5     6   1
    10    10     5   1
    11     7    11  ar
    12     7    12  ar
    13     8    13   1
    14    17    10   1
    15    13    14  ar
    16    13    15  ar
    17    13    16  ar
    18    17    18   1
    19    17    19   1
    20    26    17   1
    21    18    27   1
    22    18    28   1
    23    19    20  ar
    24    19    21  ar
    25    22    23  ar
    26    22    24  ar
    27    22    25  ar
    28    22    26   1
    29     2    29   1
    30     3    30   1
    31     4    31   1
    32     5    32   1
    33     6    33   1
    34     6    34   1
    35     9    35   1
    36    18    36   1
@<TRIPOS>SUBSTRUCTURE
     1  GG9      1

