@<TRIPOS>MOLECULE
2qbp_ligand_078
    60    63
SMALL
GAST_HUCK
****
This file was generated by PARSER (from files_GN.cpp)

@<TRIPOS>ATOM
      1 S1         43.7502   14.9257    2.3658 S.3         1 MOL      -0.0382
      2 C2         44.9138   15.9576    3.1030 C.2         1 MOL       0.0813
      3 C3         46.1849   15.4136    2.8306 C.2         1 MOL       0.1014
      4 C4         46.1527   14.2381    2.0586 C.2         1 MOL       0.0465
      5 C5         44.8677   13.7980    1.6902 C.2         1 MOL       0.0450
      6 C6         44.6506   17.1376    3.7990 C.2         1 MOL       0.0555
      7 O7         43.9822   17.1147    4.9711 O.co2       1 MOL      -0.5699
      8 O8         45.2272   18.3059    3.4176 O.co2       1 MOL      -0.5699
      9 C9         44.5036   12.6999    0.8890 C.ar        1 MOL      -0.0166
     10 C10        44.2792   12.8700   -0.4988 C.ar        1 MOL      -0.0362
     11 C11        43.7990   11.7947   -1.2997 C.ar        1 MOL       0.0383
     12 C12        43.5538   10.5598   -0.6694 C.ar        1 MOL      -0.0440
     13 C13        43.8275   10.3690    0.6881 C.ar        1 MOL      -0.0722
     14 C14        44.2951   11.4362    1.4786 C.ar        1 MOL      -0.0655
     15 BR19       47.7018   13.3220    1.5707 Br          1 MOL      -0.0668
     16 O20        47.3326   16.0245    3.2447 O.3         1 MOL      -0.3141
     17 C21        47.5667   15.9610    4.6688 C.3         1 MOL       0.1195
     18 C22        48.5771   16.9663    4.9992 C.2         1 MOL       0.0648
     19 O25        48.3245   17.9418    5.9058 O.co2       1 MOL      -0.5663
     20 O26        49.7605   16.9885    4.3442 O.co2       1 MOL      -0.5663
     21 N29        43.5532   11.8331   -2.6299 N.pl3       1 MOL      -0.3201
     22 C30        44.2919   12.4215   -3.7087 C.3         1 MOL       0.0379
     23 C31        44.3459   13.9595   -3.9221 C.3         1 MOL      -0.0135
     24 C32        45.1661   14.3082   -5.1996 C.3         1 MOL       0.0314
     25 N33        46.4608   13.6743   -5.1291 N.am        1 MOL      -0.2365
     26 C34        46.4992   12.2453   -4.9847 C.3         1 MOL       0.0314
     27 C35        45.7235   11.8290   -3.7099 C.3         1 MOL      -0.0135
     28 S46        47.8507   14.6431   -4.9784 S.o2        1 MOL       0.0512
     29 O47        47.7575   15.4929   -3.6375 O.2         1 MOL      -0.1532
     30 O48        47.7989   15.6863   -6.1782 O.2         1 MOL      -0.1532
     31 C49        49.4879   13.8766   -5.0537 C.3         1 MOL       0.1181
     32 C50        49.8839   13.2041   -3.7857 C.ar        1 MOL      -0.0204
     33 C53        50.2515   13.9771   -2.6579 C.ar        1 MOL      -0.0587
     34 C54        50.6910   13.3565   -1.4684 C.ar        1 MOL      -0.0685
     35 C55        50.7591   11.9557   -1.3921 C.ar        1 MOL      -0.0687
     36 C56        50.3885   11.1758   -2.5005 C.ar        1 MOL      -0.0685
     37 C57        49.9629   11.7959   -3.6900 C.ar        1 MOL      -0.0587
     38 H1         44.3889   13.7995   -0.8953 H           1 MOL       0.0516
     39 H2         43.1903    9.7715   -1.2131 H           1 MOL       0.0521
     40 H3         43.6541    9.4516    1.1247 H           1 MOL       0.0585
     41 H4         44.4605   11.2863    2.4763 H           1 MOL       0.0520
     42 H5         47.9340   14.9744    4.9363 H           1 MOL       0.0780
     43 H6         46.6493   16.1701    5.2509 H           1 MOL       0.0780
     44 H7         42.9733   11.0839   -2.9441 H           1 MOL       0.1756
     45 H8         43.7974   12.0258   -4.5970 H           1 MOL       0.0548
     46 H9         44.8500   14.4488   -3.0869 H           1 MOL       0.0303
     47 H10        43.3277   14.3693   -4.0121 H           1 MOL       0.0303
     48 H11        45.2306   15.3998   -5.2953 H           1 MOL       0.0479
     49 H12        44.6362   13.9395   -6.0852 H           1 MOL       0.0479
     50 H13        47.5183   11.8502   -4.9315 H           1 MOL       0.0479
     51 H14        46.0398   11.7908   -5.8554 H           1 MOL       0.0479
     52 H15        45.6835   10.7353   -3.6683 H           1 MOL       0.0303
     53 H16        46.2710   12.1794   -2.8246 H           1 MOL       0.0303
     54 H17        50.2233   14.6563   -5.2786 H           1 MOL       0.0682
     55 H18        49.5114   13.1828   -5.8946 H           1 MOL       0.0682
     56 H19        50.2280   15.0003   -2.6987 H           1 MOL       0.0557
     57 H20        50.9730   13.9293   -0.6692 H           1 MOL       0.0599
     58 H21        51.0866   11.5069   -0.5361 H           1 MOL       0.0559
     59 H22        50.4437   10.1566   -2.4461 H           1 MOL       0.0599
     60 H23        49.7178   11.2051   -4.4896 H           1 MOL       0.0557
@<TRIPOS>BOND
     1     1     2   1
     2     1     5   1
     3     2     3   2
     4     2     6   1
     5     3     4   1
     6     3    16   1
     7     4     5   2
     8     4    15   1
     9     5     9   1
    10     6     7  ar
    11     6     8  ar
    12     9    10  ar
    13     9    14  ar
    14    10    11  ar
    15    11    12  ar
    16    11    21   1
    17    12    13  ar
    18    13    14  ar
    19    16    17   1
    20    17    18   1
    21    18    19  ar
    22    18    20  ar
    23    21    22   1
    24    22    23   1
    25    22    27   1
    26    23    24   1
    27    24    25   1
    28    25    26   1
    29    25    28  am
    30    26    27   1
    31    28    29   2
    32    28    30   2
    33    28    31   1
    34    31    32   1
    35    32    33  ar
    36    32    37  ar
    37    33    34  ar
    38    34    35  ar
    39    35    36  ar
    40    36    37  ar
    41    10    38   1
    42    12    39   1
    43    13    40   1
    44    14    41   1
    45    17    42   1
    46    17    43   1
    47    21    44   1
    48    22    45   1
    49    23    46   1
    50    23    47   1
    51    24    48   1
    52    24    49   1
    53    26    50   1
    54    26    51   1
    55    27    52   1
    56    27    53   1
    57    31    54   1
    58    31    55   1
    59    33    56   1
    60    34    57   1
    61    35    58   1
    62    36    59   1
    63    37    60   1
@<TRIPOS>SUBSTRUCTURE
     1  MOL      2

