@<TRIPOS>MOLECULE
2qbp_ligand_055
    60    63
SMALL
GAST_HUCK
****
This file was generated by PARSER (from files_GN.cpp)

@<TRIPOS>ATOM
      1 S1         45.1694   13.9483    1.4825 S.3         1 MOL      -0.0382
      2 C2         44.9383   15.4922    2.2078 C.2         1 MOL       0.0813
      3 C3         46.1849   15.9209    2.6917 C.2         1 MOL       0.1014
      4 C4         47.2446   15.0280    2.4099 C.2         1 MOL       0.0465
      5 C5         46.8600   13.8564    1.7393 C.2         1 MOL       0.0450
      6 C6         43.7213   16.1663    2.2570 C.2         1 MOL       0.0555
      7 O7         43.5703   17.3489    1.6148 O.co2       1 MOL      -0.5699
      8 O8         42.6307   15.5580    2.7871 O.co2       1 MOL      -0.5699
      9 C9         47.6524   12.7673    1.3370 C.ar        1 MOL      -0.0166
     10 C10        47.9371   11.7197    2.2436 C.ar        1 MOL      -0.0362
     11 C11        48.6237   10.5552    1.8125 C.ar        1 MOL       0.0383
     12 C12        49.0547   10.4932    0.4633 C.ar        1 MOL      -0.0440
     13 C13        48.7951   11.5383   -0.4297 C.ar        1 MOL      -0.0722
     14 C14        48.0811   12.6654   -0.0040 C.ar        1 MOL      -0.0655
     15 BR19       49.0024   15.4171    2.8686 Br          1 MOL      -0.0668
     16 O20        46.3451   17.0753    3.4025 O.3         1 MOL      -0.3141
     17 C21        46.4805   16.9094    4.8347 C.3         1 MOL       0.1195
     18 C22        45.2449   16.4314    5.4754 C.2         1 MOL       0.0648
     19 O25        45.2325   15.3043    6.2283 O.co2       1 MOL      -0.5663
     20 O26        44.1101   17.1477    5.3159 O.co2       1 MOL      -0.5663
     21 N29        48.7798    9.5383    2.7002 N.pl3       1 MOL      -0.3201
     22 C30        49.2348    8.2002    2.4213 C.3         1 MOL       0.0379
     23 C31        50.7885    8.0780    2.2919 C.3         1 MOL      -0.0135
     24 C32        51.5249    8.0685    3.6588 C.3         1 MOL       0.0314
     25 N33        50.9089    7.1220    4.5502 N.am        1 MOL      -0.2365
     26 C34        49.5076    7.3157    4.8280 C.3         1 MOL       0.0314
     27 C35        48.6962    7.2242    3.5069 C.3         1 MOL      -0.0135
     28 S46        51.6636    5.6283    4.8334 S.o2        1 MOL       0.0512
     29 O47        50.8877    4.8241    5.9696 O.2         1 MOL      -0.1532
     30 O48        53.0698    5.9144    5.5191 O.2         1 MOL      -0.1532
     31 C49        51.8242    4.5158    3.4101 C.3         1 MOL       0.1181
     32 C50        53.2056    4.4874    2.8661 C.ar        1 MOL      -0.0204
     33 C53        54.2158    3.7332    3.5109 C.ar        1 MOL      -0.0587
     34 C54        55.5170    3.6692    2.9778 C.ar        1 MOL      -0.0685
     35 C55        55.8292    4.3557    1.7904 C.ar        1 MOL      -0.0687
     36 C56        54.8387    5.1040    1.1352 C.ar        1 MOL      -0.0685
     37 C57        53.5389    5.1708    1.6698 C.ar        1 MOL      -0.0587
     38 H1         47.6037   11.7877    3.2070 H           1 MOL       0.0516
     39 H2         49.5466    9.6698    0.1064 H           1 MOL       0.0521
     40 H3         49.1083   11.4553   -1.4046 H           1 MOL       0.0585
     41 H4         47.8672   13.3985   -0.6850 H           1 MOL       0.0520
     42 H5         46.7206   17.8827    5.2534 H           1 MOL       0.0780
     43 H6         47.3103   16.2392    5.0897 H           1 MOL       0.0780
     44 H7         48.3906    9.6805    3.5898 H           1 MOL       0.1756
     45 H8         48.7827    7.8806    1.4813 H           1 MOL       0.0548
     46 H9         51.2005    8.8683    1.6658 H           1 MOL       0.0303
     47 H10        50.9976    7.1320    1.7892 H           1 MOL       0.0303
     48 H11        51.4671    9.0634    4.1023 H           1 MOL       0.0479
     49 H12        52.5867    7.8512    3.4982 H           1 MOL       0.0479
     50 H13        49.3610    8.3080    5.2595 H           1 MOL       0.0479
     51 H14        49.1121    6.5955    5.5467 H           1 MOL       0.0479
     52 H15        48.7544    6.1945    3.1297 H           1 MOL       0.0303
     53 H16        47.6380    7.4320    3.7113 H           1 MOL       0.0303
     54 H17        51.0991    4.8319    2.6578 H           1 MOL       0.0682
     55 H18        51.5417    3.5054    3.7133 H           1 MOL       0.0682
     56 H19        54.0094    3.2211    4.3721 H           1 MOL       0.0557
     57 H20        56.2393    3.1231    3.4565 H           1 MOL       0.0599
     58 H21        56.7743    4.3107    1.4048 H           1 MOL       0.0559
     59 H22        55.0545    5.5945    0.2645 H           1 MOL       0.0599
     60 H23        52.8375    5.7146    1.1665 H           1 MOL       0.0557
@<TRIPOS>BOND
     1     1     2   1
     2     1     5   1
     3     2     3   2
     4     2     6   1
     5     3     4   1
     6     3    16   1
     7     4     5   2
     8     4    15   1
     9     5     9   1
    10     6     7  ar
    11     6     8  ar
    12     9    10  ar
    13     9    14  ar
    14    10    11  ar
    15    11    12  ar
    16    11    21   1
    17    12    13  ar
    18    13    14  ar
    19    16    17   1
    20    17    18   1
    21    18    19  ar
    22    18    20  ar
    23    21    22   1
    24    22    23   1
    25    22    27   1
    26    23    24   1
    27    24    25   1
    28    25    26   1
    29    25    28  am
    30    26    27   1
    31    28    29   2
    32    28    30   2
    33    28    31   1
    34    31    32   1
    35    32    33  ar
    36    32    37  ar
    37    33    34  ar
    38    34    35  ar
    39    35    36  ar
    40    36    37  ar
    41    10    38   1
    42    12    39   1
    43    13    40   1
    44    14    41   1
    45    17    42   1
    46    17    43   1
    47    21    44   1
    48    22    45   1
    49    23    46   1
    50    23    47   1
    51    24    48   1
    52    24    49   1
    53    26    50   1
    54    26    51   1
    55    27    52   1
    56    27    53   1
    57    31    54   1
    58    31    55   1
    59    33    56   1
    60    34    57   1
    61    35    58   1
    62    36    59   1
    63    37    60   1
@<TRIPOS>SUBSTRUCTURE
     1  MOL      2

