@<TRIPOS>MOLECULE
2qbp_ligand_027
    60    63
SMALL
GAST_HUCK
****
This file was generated by PARSER (from files_GN.cpp)

@<TRIPOS>ATOM
      1 S1         46.1401   13.3129    2.3012 S.3         1 MOL      -0.0382
      2 C2         46.0036   14.5066    3.5272 C.2         1 MOL       0.0813
      3 C3         45.4405   15.6488    2.9435 C.2         1 MOL       0.1014
      4 C4         45.1021   15.4846    1.5853 C.2         1 MOL       0.0465
      5 C5         45.4361   14.2380    1.0321 C.2         1 MOL       0.0450
      6 C6         46.3987   14.3436    4.8621 C.2         1 MOL       0.0555
      7 O7         45.4725   14.3788    5.8465 O.co2       1 MOL      -0.5699
      8 O8         47.6390   13.8711    5.1378 O.co2       1 MOL      -0.5699
      9 C9         45.2097   13.7312   -0.2671 C.ar        1 MOL      -0.0166
     10 C10        46.2578   13.0920   -0.9751 C.ar        1 MOL      -0.0362
     11 C11        46.0450   12.5538   -2.2643 C.ar        1 MOL       0.0383
     12 C12        44.7777   12.6835   -2.8653 C.ar        1 MOL      -0.0440
     13 C13        43.7240   13.2979   -2.1676 C.ar        1 MOL      -0.0722
     14 C14        43.9427   13.8328   -0.8852 C.ar        1 MOL      -0.0655
     15 BR19       44.2985   16.8574    0.6237 Br          1 MOL      -0.0668
     16 O20        45.2385   16.8180    3.6325 O.3         1 MOL      -0.3141
     17 C21        46.3486   17.7506    3.6030 C.3         1 MOL       0.1195
     18 C22        47.2428   17.5927    4.7621 C.2         1 MOL       0.0648
     19 O25        48.3652   18.3404    4.8700 O.co2       1 MOL      -0.5663
     20 O26        46.7858   16.9798    5.8766 O.co2       1 MOL      -0.5663
     21 N29        47.0864   12.1216   -3.0213 N.pl3       1 MOL      -0.3201
     22 C30        47.7755   10.8668   -2.8920 C.3         1 MOL       0.0379
     23 C31        49.0442   10.9820   -1.9958 C.3         1 MOL      -0.0135
     24 C32        49.8325    9.6416   -1.9663 C.3         1 MOL       0.0314
     25 N33        48.9560    8.5508   -1.6100 N.am        1 MOL      -0.2365
     26 C34        47.7747    8.3509   -2.4163 C.3         1 MOL       0.0314
     27 C35        46.9139    9.6443   -2.4522 C.3         1 MOL      -0.0135
     28 S46        49.0967    7.8498   -0.0729 S.o2        1 MOL       0.0512
     29 O47        50.5425    7.1978    0.0571 O.2         1 MOL      -0.1532
     30 O48        48.0982    6.6222    0.0900 O.2         1 MOL      -0.1532
     31 C49        48.8239    9.0340    1.2650 C.3         1 MOL       0.1181
     32 C50        48.6571    8.3500    2.5700 C.ar        1 MOL      -0.0204
     33 C53        47.3709    7.9661    3.0161 C.ar        1 MOL      -0.0587
     34 C54        47.2031    7.3239    4.2583 C.ar        1 MOL      -0.0685
     35 C55        48.3228    7.0487    5.0630 C.ar        1 MOL      -0.0687
     36 C56        49.6093    7.4065    4.6225 C.ar        1 MOL      -0.0685
     37 C57        49.7760    8.0567    3.3838 C.ar        1 MOL      -0.0587
     38 H1         47.1983   13.0449   -0.5688 H           1 MOL       0.0516
     39 H2         44.6149   12.3422   -3.8108 H           1 MOL       0.0521
     40 H3         42.8013   13.3880   -2.5968 H           1 MOL       0.0585
     41 H4         43.1659   14.2805   -0.3976 H           1 MOL       0.0520
     42 H5         45.9311   18.7623    3.6535 H           1 MOL       0.0780
     43 H6         46.9494   17.6800    2.6900 H           1 MOL       0.0780
     44 H7         47.6380   12.8341   -3.3880 H           1 MOL       0.1756
     45 H8         48.1177   10.6543   -3.9064 H           1 MOL       0.0548
     46 H9         48.7534   11.2423   -0.9740 H           1 MOL       0.0303
     47 H10        49.6969   11.7748   -2.3730 H           1 MOL       0.0303
     48 H11        50.6787    9.7413   -1.2784 H           1 MOL       0.0479
     49 H12        50.2500    9.4518   -2.9579 H           1 MOL       0.0479
     50 H13        47.1544    7.5222   -2.0636 H           1 MOL       0.0479
     51 H14        48.0857    8.0974   -3.4330 H           1 MOL       0.0479
     52 H15        46.0873    9.5038   -3.1514 H           1 MOL       0.0303
     53 H16        46.4947    9.8168   -1.4563 H           1 MOL       0.0303
     54 H17        47.9388    9.6273    1.0282 H           1 MOL       0.0682
     55 H18        49.6735    9.7189    1.2970 H           1 MOL       0.0682
     56 H19        46.5477    8.1483    2.4368 H           1 MOL       0.0557
     57 H20        46.2672    7.0581    4.5717 H           1 MOL       0.0599
     58 H21        48.2018    6.5840    5.9661 H           1 MOL       0.0559
     59 H22        50.4250    7.1928    5.2001 H           1 MOL       0.0599
     60 H23        50.7195    8.3106    3.0807 H           1 MOL       0.0557
@<TRIPOS>BOND
     1     1     2   1
     2     1     5   1
     3     2     3   2
     4     2     6   1
     5     3     4   1
     6     3    16   1
     7     4     5   2
     8     4    15   1
     9     5     9   1
    10     6     7  ar
    11     6     8  ar
    12     9    10  ar
    13     9    14  ar
    14    10    11  ar
    15    11    12  ar
    16    11    21   1
    17    12    13  ar
    18    13    14  ar
    19    16    17   1
    20    17    18   1
    21    18    19  ar
    22    18    20  ar
    23    21    22   1
    24    22    23   1
    25    22    27   1
    26    23    24   1
    27    24    25   1
    28    25    26   1
    29    25    28  am
    30    26    27   1
    31    28    29   2
    32    28    30   2
    33    28    31   1
    34    31    32   1
    35    32    33  ar
    36    32    37  ar
    37    33    34  ar
    38    34    35  ar
    39    35    36  ar
    40    36    37  ar
    41    10    38   1
    42    12    39   1
    43    13    40   1
    44    14    41   1
    45    17    42   1
    46    17    43   1
    47    21    44   1
    48    22    45   1
    49    23    46   1
    50    23    47   1
    51    24    48   1
    52    24    49   1
    53    26    50   1
    54    26    51   1
    55    27    52   1
    56    27    53   1
    57    31    54   1
    58    31    55   1
    59    33    56   1
    60    34    57   1
    61    35    58   1
    62    36    59   1
    63    37    60   1
@<TRIPOS>SUBSTRUCTURE
     1  MOL      2

