@<TRIPOS>MOLECULE
2qbp_ligand_006
    60    63
SMALL
GAST_HUCK
****
This file was generated by PARSER (from files_GN.cpp)

@<TRIPOS>ATOM
      1 S1         44.5694   14.4114    0.4656 S.3         1 MOL      -0.0382
      2 C2         45.1943   15.6277    1.5056 C.2         1 MOL       0.0813
      3 C3         46.0072   14.9598    2.4231 C.2         1 MOL       0.1014
      4 C4         46.1434   13.5708    2.1928 C.2         1 MOL       0.0465
      5 C5         45.3709   13.0362    1.1344 C.2         1 MOL       0.0450
      6 C6         44.9118   16.9958    1.4555 C.2         1 MOL       0.0555
      7 O7         43.6253   17.4230    1.3404 O.co2       1 MOL      -0.5699
      8 O8         45.8625   17.9295    1.7599 O.co2       1 MOL      -0.5699
      9 C9         45.1501   11.6887    0.6513 C.ar        1 MOL      -0.0166
     10 C10        44.2739   11.4408   -0.4442 C.ar        1 MOL      -0.0362
     11 C11        43.8693   10.1323   -0.8173 C.ar        1 MOL       0.0383
     12 C12        44.4270    9.0346   -0.1219 C.ar        1 MOL      -0.0440
     13 C13        45.3851    9.2411    0.8776 C.ar        1 MOL      -0.0722
     14 C14        45.7156   10.5504    1.2773 C.ar        1 MOL      -0.0655
     15 BR19       47.3589   12.6600    3.2666 Br          1 MOL      -0.0668
     16 O20        46.5260   15.6154    3.5100 O.3         1 MOL      -0.3141
     17 C21        45.6615   15.5808    4.6704 C.3         1 MOL       0.1195
     18 C22        45.4168   16.9575    5.1407 C.2         1 MOL       0.0648
     19 O25        44.1413   17.3782    5.3310 O.co2       1 MOL      -0.5663
     20 O26        46.3790   17.5909    5.8566 O.co2       1 MOL      -0.5663
     21 N29        42.9166   10.0263   -1.7865 N.pl3       1 MOL      -0.3201
     22 C30        42.0008    8.9313   -1.9994 C.3         1 MOL       0.0379
     23 C31        40.7628    9.4640   -2.7827 C.3         1 MOL      -0.0135
     24 C32        41.0572    9.6212   -4.2941 C.3         1 MOL       0.0314
     25 N33        41.5153    8.3574   -4.8020 N.am        1 MOL      -0.2365
     26 C34        42.7402    7.8408   -4.2529 C.3         1 MOL       0.0314
     27 C35        42.6020    7.6771   -2.7164 C.3         1 MOL      -0.0135
     28 S46        40.5841    7.4400   -5.8867 S.o2        1 MOL       0.0512
     29 O47        40.9627    5.8934   -5.7862 O.2         1 MOL      -0.1532
     30 O48        41.0309    7.8889   -7.3448 O.2         1 MOL      -0.1532
     31 C49        38.7729    7.5539   -5.7735 C.3         1 MOL       0.1181
     32 C50        38.0971    6.2839   -5.4043 C.ar        1 MOL      -0.0204
     33 C53        37.3235    5.5632   -6.3464 C.ar        1 MOL      -0.0587
     34 C54        36.6490    4.3851   -5.9740 C.ar        1 MOL      -0.0685
     35 C55        36.7397    3.9124   -4.6514 C.ar        1 MOL      -0.0687
     36 C56        37.5041    4.6165   -3.7073 C.ar        1 MOL      -0.0685
     37 C57        38.1690    5.7981   -4.0778 C.ar        1 MOL      -0.0587
     38 H1         43.8779   12.2311   -0.9613 H           1 MOL       0.0516
     39 H2         44.1512    8.0714   -0.3489 H           1 MOL       0.0521
     40 H3         45.8087    8.4313    1.3363 H           1 MOL       0.0585
     41 H4         46.3622   10.6235    2.0657 H           1 MOL       0.0520
     42 H5         46.1937   15.0266    5.4488 H           1 MOL       0.0780
     43 H6         44.6993   15.0812    4.5137 H           1 MOL       0.0780
     44 H7         42.6826   10.8565   -2.2296 H           1 MOL       0.1756
     45 H8         41.6404    8.6134   -1.0130 H           1 MOL       0.0548
     46 H9         40.4312   10.4228   -2.3704 H           1 MOL       0.0303
     47 H10        39.9317    8.7634   -2.6667 H           1 MOL       0.0303
     48 H11        41.8435   10.3719   -4.4374 H           1 MOL       0.0479
     49 H12        40.1751    9.9954   -4.8113 H           1 MOL       0.0479
     50 H13        43.5521    8.5399   -4.4735 H           1 MOL       0.0479
     51 H14        43.0260    6.8802   -4.6830 H           1 MOL       0.0479
     52 H15        41.9328    6.8245   -2.5289 H           1 MOL       0.0303
     53 H16        43.5834    7.4169   -2.3044 H           1 MOL       0.0303
     54 H17        38.4205    7.9142   -6.7478 H           1 MOL       0.0682
     55 H18        38.4981    8.3199   -5.0441 H           1 MOL       0.0682
     56 H19        37.2430    5.8905   -7.3123 H           1 MOL       0.0557
     57 H20        36.0844    3.8778   -6.6590 H           1 MOL       0.0599
     58 H21        36.2436    3.0595   -4.3798 H           1 MOL       0.0559
     59 H22        37.5645    4.2753   -2.7440 H           1 MOL       0.0599
     60 H23        38.7004    6.3116   -3.3711 H           1 MOL       0.0557
@<TRIPOS>BOND
     1     1     2   1
     2     1     5   1
     3     2     3   2
     4     2     6   1
     5     3     4   1
     6     3    16   1
     7     4     5   2
     8     4    15   1
     9     5     9   1
    10     6     7  ar
    11     6     8  ar
    12     9    10  ar
    13     9    14  ar
    14    10    11  ar
    15    11    12  ar
    16    11    21   1
    17    12    13  ar
    18    13    14  ar
    19    16    17   1
    20    17    18   1
    21    18    19  ar
    22    18    20  ar
    23    21    22   1
    24    22    23   1
    25    22    27   1
    26    23    24   1
    27    24    25   1
    28    25    26   1
    29    25    28  am
    30    26    27   1
    31    28    29   2
    32    28    30   2
    33    28    31   1
    34    31    32   1
    35    32    33  ar
    36    32    37  ar
    37    33    34  ar
    38    34    35  ar
    39    35    36  ar
    40    36    37  ar
    41    10    38   1
    42    12    39   1
    43    13    40   1
    44    14    41   1
    45    17    42   1
    46    17    43   1
    47    21    44   1
    48    22    45   1
    49    23    46   1
    50    23    47   1
    51    24    48   1
    52    24    49   1
    53    26    50   1
    54    26    51   1
    55    27    52   1
    56    27    53   1
    57    31    54   1
    58    31    55   1
    59    33    56   1
    60    34    57   1
    61    35    58   1
    62    36    59   1
    63    37    60   1
@<TRIPOS>SUBSTRUCTURE
     1  MOL      2

