@<TRIPOS>MOLECULE
2qbp_ligand_046
    60    63
SMALL
GAST_HUCK
****
This file was generated by PARSER (from files_GN.cpp)

@<TRIPOS>ATOM
      1 S1         43.6248   15.1256    1.9799 S.3         1 MOL      -0.0382
      2 C2         44.7647   16.1350    2.7800 C.2         1 MOL       0.0813
      3 C3         46.0217   15.5047    2.6891 C.2         1 MOL       0.1014
      4 C4         45.9902   14.2479    2.0456 C.2         1 MOL       0.0465
      5 C5         44.7236   13.8662    1.5822 C.2         1 MOL       0.0450
      6 C6         44.4624   17.3755    3.3568 C.2         1 MOL       0.0555
      7 O7         43.9544   17.3793    4.6124 O.co2       1 MOL      -0.5699
      8 O8         44.1066   18.3873    2.5309 O.co2       1 MOL      -0.5699
      9 C9         44.4046   12.7332    0.8322 C.ar        1 MOL      -0.0166
     10 C10        44.5247   12.7814   -0.5732 C.ar        1 MOL      -0.0362
     11 C11        44.4201   11.6071   -1.3537 C.ar        1 MOL       0.0383
     12 C12        44.0685   10.3884   -0.7068 C.ar        1 MOL      -0.0440
     13 C13        43.9104   10.3384    0.6869 C.ar        1 MOL      -0.0722
     14 C14        44.0759   11.5029    1.4596 C.ar        1 MOL      -0.0655
     15 BR19       47.5221   13.2359    1.7707 Br          1 MOL      -0.0668
     16 O20        47.1761   16.0797    3.1611 O.3         1 MOL      -0.3141
     17 C21        47.3902   15.9248    4.5825 C.3         1 MOL       0.1195
     18 C22        47.3453   17.2735    5.1649 C.2         1 MOL       0.0648
     19 O25        46.1604   17.8000    5.5752 O.co2       1 MOL      -0.5663
     20 O26        48.4925   17.9061    5.5217 O.co2       1 MOL      -0.5663
     21 N29        44.4496   11.6814   -2.7096 N.pl3       1 MOL      -0.3201
     22 C30        45.6180   11.3652   -3.4828 C.3         1 MOL       0.0379
     23 C31        46.6740   12.4901   -3.2740 C.3         1 MOL      -0.0135
     24 C32        47.9071   12.2715   -4.1702 C.3         1 MOL       0.0314
     25 N33        48.4480   10.9565   -3.9628 N.am        1 MOL      -0.2365
     26 C34        47.5742    9.8256   -4.1603 C.3         1 MOL       0.0314
     27 C35        46.2882    9.9607   -3.2964 C.3         1 MOL      -0.0135
     28 S46        49.9118   10.7471   -3.1341 S.o2        1 MOL       0.0512
     29 O47        50.7268    9.5842   -3.8555 O.2         1 MOL      -0.1532
     30 O48        49.6225   10.3038   -1.6336 O.2         1 MOL      -0.1532
     31 C49        51.0288   12.1705   -3.1694 C.3         1 MOL       0.1181
     32 C50        52.4553   11.8028   -2.9471 C.ar        1 MOL      -0.0204
     33 C53        53.3211   11.5161   -4.0325 C.ar        1 MOL      -0.0587
     34 C54        54.6732   11.2061   -3.8081 C.ar        1 MOL      -0.0685
     35 C55        55.1792   11.1621   -2.4966 C.ar        1 MOL      -0.0687
     36 C56        54.3263   11.4242   -1.4077 C.ar        1 MOL      -0.0685
     37 C57        52.9792   11.7496   -1.6334 C.ar        1 MOL      -0.0587
     38 H1         44.7603   13.6548   -1.0457 H           1 MOL       0.0516
     39 H2         43.9120    9.5244   -1.2532 H           1 MOL       0.0521
     40 H3         43.6492    9.4564    1.1492 H           1 MOL       0.0585
     41 H4         43.9696   11.4627    2.4787 H           1 MOL       0.0520
     42 H5         48.3649   15.4827    4.7492 H           1 MOL       0.0780
     43 H6         46.6447   15.3003    5.1005 H           1 MOL       0.0780
     44 H7         43.9663   12.4670   -3.0776 H           1 MOL       0.1756
     45 H8         45.2757   11.3975   -4.5176 H           1 MOL       0.0548
     46 H9         46.9737   12.4868   -2.2287 H           1 MOL       0.0303
     47 H10        46.2136   13.4474   -3.5097 H           1 MOL       0.0303
     48 H11        48.6095   13.0737   -3.9575 H           1 MOL       0.0479
     49 H12        47.6102   12.3681   -5.2175 H           1 MOL       0.0479
     50 H13        48.0703    8.8714   -3.9369 H           1 MOL       0.0479
     51 H14        47.2970    9.7947   -5.2204 H           1 MOL       0.0479
     52 H15        45.5922    9.1572   -3.5785 H           1 MOL       0.0303
     53 H16        46.5684    9.8195   -2.2526 H           1 MOL       0.0303
     54 H17        50.7329   12.8906   -2.3986 H           1 MOL       0.0682
     55 H18        50.9122   12.6726   -4.1352 H           1 MOL       0.0682
     56 H19        52.9775   11.5520   -4.9961 H           1 MOL       0.0557
     57 H20        55.2927   11.0130   -4.5983 H           1 MOL       0.0599
     58 H21        56.1623   10.9466   -2.3331 H           1 MOL       0.0559
     59 H22        54.6931   11.4116   -0.4559 H           1 MOL       0.0599
     60 H23        52.3770   11.9507   -0.8316 H           1 MOL       0.0557
@<TRIPOS>BOND
     1     1     2   1
     2     1     5   1
     3     2     3   2
     4     2     6   1
     5     3     4   1
     6     3    16   1
     7     4     5   2
     8     4    15   1
     9     5     9   1
    10     6     7  ar
    11     6     8  ar
    12     9    10  ar
    13     9    14  ar
    14    10    11  ar
    15    11    12  ar
    16    11    21   1
    17    12    13  ar
    18    13    14  ar
    19    16    17   1
    20    17    18   1
    21    18    19  ar
    22    18    20  ar
    23    21    22   1
    24    22    23   1
    25    22    27   1
    26    23    24   1
    27    24    25   1
    28    25    26   1
    29    25    28  am
    30    26    27   1
    31    28    29   2
    32    28    30   2
    33    28    31   1
    34    31    32   1
    35    32    33  ar
    36    32    37  ar
    37    33    34  ar
    38    34    35  ar
    39    35    36  ar
    40    36    37  ar
    41    10    38   1
    42    12    39   1
    43    13    40   1
    44    14    41   1
    45    17    42   1
    46    17    43   1
    47    21    44   1
    48    22    45   1
    49    23    46   1
    50    23    47   1
    51    24    48   1
    52    24    49   1
    53    26    50   1
    54    26    51   1
    55    27    52   1
    56    27    53   1
    57    31    54   1
    58    31    55   1
    59    33    56   1
    60    34    57   1
    61    35    58   1
    62    36    59   1
    63    37    60   1
@<TRIPOS>SUBSTRUCTURE
     1  MOL      2

