@<TRIPOS>MOLECULE
2qbp_ligand_084
    60    63
SMALL
GAST_HUCK
****
This file was generated by PARSER (from files_GN.cpp)

@<TRIPOS>ATOM
      1 S1         46.5840   12.1387    2.6155 S.3         1 MOL      -0.0382
      2 C2         46.2146   13.5235    3.5657 C.2         1 MOL       0.0813
      3 C3         45.4944   14.4065    2.7416 C.2         1 MOL       0.1014
      4 C4         45.2681   13.9388    1.4365 C.2         1 MOL       0.0465
      5 C5         45.8119   12.6653    1.1675 C.2         1 MOL       0.0450
      6 C6         46.5375   13.6671    4.9123 C.2         1 MOL       0.0555
      7 O7         45.7678   14.4279    5.7279 O.co2       1 MOL      -0.5699
      8 O8         47.7697   13.2963    5.3469 O.co2       1 MOL      -0.5699
      9 C9         45.6872   11.8545    0.0166 C.ar        1 MOL      -0.0166
     10 C10        44.4251   11.6848   -0.6052 C.ar        1 MOL      -0.0362
     11 C11        44.2202   10.7191   -1.6217 C.ar        1 MOL       0.0383
     12 C12        45.3346    9.9897   -2.0829 C.ar        1 MOL      -0.0440
     13 C13        46.6032   10.1754   -1.5070 C.ar        1 MOL      -0.0722
     14 C14        46.7795   11.0767   -0.4449 C.ar        1 MOL      -0.0655
     15 BR19       44.3881   15.0012    0.1830 Br          1 MOL      -0.0668
     16 O20        45.0750   15.6219    3.1983 O.3         1 MOL      -0.3141
     17 C21        46.0826   16.6532    3.1456 C.3         1 MOL       0.1195
     18 C22        45.7003   17.8043    3.9798 C.2         1 MOL       0.0648
     19 O25        44.6290   17.7378    4.8062 O.co2       1 MOL      -0.5663
     20 O26        46.5339   18.8697    4.0611 O.co2       1 MOL      -0.5663
     21 N29        42.9250   10.5829   -2.0294 N.pl3       1 MOL      -0.3201
     22 C30        42.1661    9.4725   -2.5519 C.3         1 MOL       0.0379
     23 C31        41.0886   10.0431   -3.5151 C.3         1 MOL      -0.0135
     24 C32        40.0914    8.9401   -3.9703 C.3         1 MOL       0.0314
     25 N33        40.7610    7.7595   -4.4645 N.am        1 MOL      -0.2365
     26 C34        41.8431    7.1953   -3.6935 C.3         1 MOL       0.0314
     27 C35        42.8665    8.2689   -3.2466 C.3         1 MOL      -0.0135
     28 S46        39.9216    6.7181   -5.5008 S.o2        1 MOL       0.0512
     29 O47        38.3963    7.1568   -5.6620 O.2         1 MOL      -0.1532
     30 O48        39.7723    5.2791   -4.8197 O.2         1 MOL      -0.1532
     31 C49        40.5882    6.5624   -7.1723 C.3         1 MOL       0.1181
     32 C50        41.9685    7.1085   -7.2687 C.ar        1 MOL      -0.0204
     33 C53        43.0885    6.2561   -7.3989 C.ar        1 MOL      -0.0587
     34 C54        44.3954    6.7802   -7.4524 C.ar        1 MOL      -0.0685
     35 C55        44.6009    8.1724   -7.4279 C.ar        1 MOL      -0.0687
     36 C56        43.4937    9.0356   -7.3010 C.ar        1 MOL      -0.0685
     37 C57        42.1917    8.5075   -7.2065 C.ar        1 MOL      -0.0587
     38 H1         43.6190   12.1990   -0.2317 H           1 MOL       0.0516
     39 H2         45.2530    9.3435   -2.8627 H           1 MOL       0.0521
     40 H3         47.4046    9.6329   -1.8461 H           1 MOL       0.0585
     41 H4         47.7044   11.1659   -0.0120 H           1 MOL       0.0520
     42 H5         46.2058   16.9912    2.1102 H           1 MOL       0.0780
     43 H6         47.0501   16.2937    3.5165 H           1 MOL       0.0780
     44 H7         42.3464   11.2974   -1.7109 H           1 MOL       0.1756
     45 H8         41.6339    9.0752   -1.6798 H           1 MOL       0.0548
     46 H9         41.5756   10.4793   -4.3959 H           1 MOL       0.0303
     47 H10        40.5241   10.8413   -3.0240 H           1 MOL       0.0303
     48 H11        39.4490    9.3763   -4.7446 H           1 MOL       0.0479
     49 H12        39.4588    8.6632   -3.1170 H           1 MOL       0.0479
     50 H13        42.3870    6.4463   -4.2767 H           1 MOL       0.0479
     51 H14        41.4399    6.7013   -2.8025 H           1 MOL       0.0479
     52 H15        43.5694    7.7937   -2.5528 H           1 MOL       0.0303
     53 H16        43.4130    8.6229   -4.1268 H           1 MOL       0.0303
     54 H17        39.9344    7.0967   -7.8714 H           1 MOL       0.0682
     55 H18        40.5600    5.5027   -7.4500 H           1 MOL       0.0682
     56 H19        42.9639    5.2387   -7.4353 H           1 MOL       0.0557
     57 H20        45.2014    6.1489   -7.5376 H           1 MOL       0.0599
     58 H21        45.5437    8.5541   -7.5019 H           1 MOL       0.0559
     59 H22        43.6447   10.0481   -7.2579 H           1 MOL       0.0599
     60 H23        41.4023    9.1534   -7.1109 H           1 MOL       0.0557
@<TRIPOS>BOND
     1     1     2   1
     2     1     5   1
     3     2     3   2
     4     2     6   1
     5     3     4   1
     6     3    16   1
     7     4     5   2
     8     4    15   1
     9     5     9   1
    10     6     7  ar
    11     6     8  ar
    12     9    10  ar
    13     9    14  ar
    14    10    11  ar
    15    11    12  ar
    16    11    21   1
    17    12    13  ar
    18    13    14  ar
    19    16    17   1
    20    17    18   1
    21    18    19  ar
    22    18    20  ar
    23    21    22   1
    24    22    23   1
    25    22    27   1
    26    23    24   1
    27    24    25   1
    28    25    26   1
    29    25    28  am
    30    26    27   1
    31    28    29   2
    32    28    30   2
    33    28    31   1
    34    31    32   1
    35    32    33  ar
    36    32    37  ar
    37    33    34  ar
    38    34    35  ar
    39    35    36  ar
    40    36    37  ar
    41    10    38   1
    42    12    39   1
    43    13    40   1
    44    14    41   1
    45    17    42   1
    46    17    43   1
    47    21    44   1
    48    22    45   1
    49    23    46   1
    50    23    47   1
    51    24    48   1
    52    24    49   1
    53    26    50   1
    54    26    51   1
    55    27    52   1
    56    27    53   1
    57    31    54   1
    58    31    55   1
    59    33    56   1
    60    34    57   1
    61    35    58   1
    62    36    59   1
    63    37    60   1
@<TRIPOS>SUBSTRUCTURE
     1  MOL      2

