@<TRIPOS>MOLECULE
2qbp_ligand_040
    60    63
SMALL
GAST_HUCK
****
This file was generated by PARSER (from files_GN.cpp)

@<TRIPOS>ATOM
      1 S1         46.8669   13.8762    3.6149 S.3         1 MOL      -0.0382
      2 C2         46.8207   15.5951    3.5433 C.2         1 MOL       0.0813
      3 C3         46.0804   15.9374    2.3946 C.2         1 MOL       0.1014
      4 C4         45.6463   14.8270    1.6389 C.2         1 MOL       0.0465
      5 C5         46.0043   13.5637    2.1547 C.2         1 MOL       0.0450
      6 C6         47.3430   16.4345    4.5386 C.2         1 MOL       0.0555
      7 O7         47.9525   17.6046    4.2134 O.co2       1 MOL      -0.5699
      8 O8         46.8540   16.2843    5.7947 O.co2       1 MOL      -0.5699
      9 C9         45.7185   12.2632    1.6752 C.ar        1 MOL      -0.0166
     10 C10        46.7151   11.2566    1.7229 C.ar        1 MOL      -0.0362
     11 C11        46.4679    9.9358    1.2839 C.ar        1 MOL       0.0383
     12 C12        45.1962    9.6433    0.7368 C.ar        1 MOL      -0.0440
     13 C13        44.1914   10.6251    0.6907 C.ar        1 MOL      -0.0722
     14 C14        44.4427   11.9200    1.1719 C.ar        1 MOL      -0.0655
     15 BR19       44.6205   15.0782    0.0995 Br          1 MOL      -0.0668
     16 O20        45.6668   17.1983    2.0417 O.3         1 MOL      -0.3141
     17 C21        44.9373   17.9748    3.0293 C.3         1 MOL       0.1195
     18 C22        44.3117   17.2629    4.1757 C.2         1 MOL       0.0648
     19 O25        44.4743   17.7626    5.4224 O.co2       1 MOL      -0.5663
     20 O26        43.9452   15.9593    4.0703 O.co2       1 MOL      -0.5663
     21 N29        47.4740    9.0293    1.4330 N.pl3       1 MOL      -0.3201
     22 C30        47.3714    7.5991    1.5371 C.3         1 MOL       0.0379
     23 C31        47.7260    6.8865    0.1994 C.3         1 MOL      -0.0135
     24 C32        49.2488    6.8925   -0.1041 C.3         1 MOL       0.0314
     25 N33        50.0168    6.4519    1.0349 N.am        1 MOL      -0.2365
     26 C34        49.7915    7.0856    2.3093 C.3         1 MOL       0.0314
     27 C35        48.2802    7.0668    2.6853 C.3         1 MOL      -0.0135
     28 S46        51.3660    5.4410    0.8238 S.o2        1 MOL       0.0512
     29 O47        52.4395    5.7385    1.9597 O.2         1 MOL      -0.1532
     30 O48        52.1585    5.8343   -0.5000 O.2         1 MOL      -0.1532
     31 C49        51.0043    3.6670    0.7883 C.3         1 MOL       0.1181
     32 C50        49.5442    3.4108    0.8132 C.ar        1 MOL      -0.0204
     33 C53        48.8219    3.2430   -0.3924 C.ar        1 MOL      -0.0587
     34 C54        47.4291    3.0450   -0.3703 C.ar        1 MOL      -0.0685
     35 C55        46.7417    3.0114    0.8572 C.ar        1 MOL      -0.0687
     36 C56        47.4504    3.1767    2.0637 C.ar        1 MOL      -0.0685
     37 C57        48.8454    3.3633    2.0408 C.ar        1 MOL      -0.0587
     38 H1         47.6419   11.4804    2.0952 H           1 MOL       0.0516
     39 H2         44.9743    8.7102    0.3770 H           1 MOL       0.0521
     40 H3         43.2736   10.3954    0.3065 H           1 MOL       0.0585
     41 H4         43.6784   12.5928    1.1767 H           1 MOL       0.0520
     42 H5         44.1293   18.4823    2.4937 H           1 MOL       0.0780
     43 H6         45.6004   18.7678    3.4092 H           1 MOL       0.0780
     44 H7         48.3628    9.3941    1.5698 H           1 MOL       0.1756
     45 H8         46.3500    7.3160    1.8151 H           1 MOL       0.0548
     46 H9         47.1810    7.3535   -0.6273 H           1 MOL       0.0303
     47 H10        47.3946    5.8466    0.2709 H           1 MOL       0.0303
     48 H11        49.5657    7.9035   -0.3748 H           1 MOL       0.0479
     49 H12        49.4069    6.2463   -0.9695 H           1 MOL       0.0479
     50 H13        50.1508    8.1200    2.2615 H           1 MOL       0.0479
     51 H14        50.3370    6.5786    3.1149 H           1 MOL       0.0479
     52 H15        47.9990    6.0292    2.9041 H           1 MOL       0.0303
     53 H16        48.1231    7.6650    3.5944 H           1 MOL       0.0303
     54 H17        51.4984    3.2078    1.6518 H           1 MOL       0.0682
     55 H18        51.4539    3.2267   -0.1044 H           1 MOL       0.0682
     56 H19        49.3037    3.2642   -1.2914 H           1 MOL       0.0557
     57 H20        46.9140    2.9175   -1.2424 H           1 MOL       0.0599
     58 H21        45.7264    2.8749    0.8748 H           1 MOL       0.0559
     59 H22        46.9525    3.1498    2.9544 H           1 MOL       0.0599
     60 H23        49.3420    3.4774    2.9246 H           1 MOL       0.0557
@<TRIPOS>BOND
     1     1     2   1
     2     1     5   1
     3     2     3   2
     4     2     6   1
     5     3     4   1
     6     3    16   1
     7     4     5   2
     8     4    15   1
     9     5     9   1
    10     6     7  ar
    11     6     8  ar
    12     9    10  ar
    13     9    14  ar
    14    10    11  ar
    15    11    12  ar
    16    11    21   1
    17    12    13  ar
    18    13    14  ar
    19    16    17   1
    20    17    18   1
    21    18    19  ar
    22    18    20  ar
    23    21    22   1
    24    22    23   1
    25    22    27   1
    26    23    24   1
    27    24    25   1
    28    25    26   1
    29    25    28  am
    30    26    27   1
    31    28    29   2
    32    28    30   2
    33    28    31   1
    34    31    32   1
    35    32    33  ar
    36    32    37  ar
    37    33    34  ar
    38    34    35  ar
    39    35    36  ar
    40    36    37  ar
    41    10    38   1
    42    12    39   1
    43    13    40   1
    44    14    41   1
    45    17    42   1
    46    17    43   1
    47    21    44   1
    48    22    45   1
    49    23    46   1
    50    23    47   1
    51    24    48   1
    52    24    49   1
    53    26    50   1
    54    26    51   1
    55    27    52   1
    56    27    53   1
    57    31    54   1
    58    31    55   1
    59    33    56   1
    60    34    57   1
    61    35    58   1
    62    36    59   1
    63    37    60   1
@<TRIPOS>SUBSTRUCTURE
     1  MOL      2

