@<TRIPOS>MOLECULE
2qbp_ligand_077
    60    63
SMALL
GAST_HUCK
****
This file was generated by PARSER (from files_GN.cpp)

@<TRIPOS>ATOM
      1 S1         47.0213   14.0296    3.8247 S.3         1 MOL      -0.0382
      2 C2         45.8713   15.2892    4.0519 C.2         1 MOL       0.0813
      3 C3         45.1491   15.4211    2.8526 C.2         1 MOL       0.1014
      4 C4         45.5229   14.4897    1.8605 C.2         1 MOL       0.0465
      5 C5         46.5670   13.6249    2.2235 C.2         1 MOL       0.0450
      6 C6         45.6943   15.9724    5.2642 C.2         1 MOL       0.0555
      7 O7         44.4623   16.2606    5.7313 O.co2       1 MOL      -0.5699
      8 O8         46.7614   16.3808    5.9877 O.co2       1 MOL      -0.5699
      9 C9         47.0472   12.5203    1.4910 C.ar        1 MOL      -0.0166
     10 C10        46.2155   11.3940    1.3212 C.ar        1 MOL      -0.0362
     11 C11        46.5766   10.3584    0.4382 C.ar        1 MOL       0.0383
     12 C12        47.8044   10.4298   -0.2562 C.ar        1 MOL      -0.0440
     13 C13        48.6769   11.5040   -0.0167 C.ar        1 MOL      -0.0722
     14 C14        48.3050   12.5441    0.8509 C.ar        1 MOL      -0.0655
     15 BR19       44.6846   14.4081    0.1972 Br          1 MOL      -0.0668
     16 O20        44.1476   16.3189    2.5734 O.3         1 MOL      -0.3141
     17 C21        44.2332   17.6897    3.0266 C.3         1 MOL       0.1195
     18 C22        45.4947   18.4069    2.7544 C.2         1 MOL       0.0648
     19 O25        46.2338   18.9141    3.7685 O.co2       1 MOL      -0.5663
     20 O26        45.9534   18.5160    1.4892 O.co2       1 MOL      -0.5663
     21 N29        45.6739    9.3571    0.2914 N.pl3       1 MOL      -0.3201
     22 C30        44.9240    9.0636   -0.8970 C.3         1 MOL       0.0379
     23 C31        43.4469    9.0727   -0.3985 C.3         1 MOL      -0.0135
     24 C32        42.4068    8.8621   -1.5188 C.3         1 MOL       0.0314
     25 N33        42.6401    9.7404   -2.6295 N.am        1 MOL      -0.2365
     26 C34        43.9674    9.8057   -3.1935 C.3         1 MOL       0.0314
     27 C35        45.0503   10.0431   -2.1056 C.3         1 MOL      -0.0135
     28 S46        41.3031   10.3406   -3.4891 S.o2        1 MOL       0.0512
     29 O47        41.4285    9.9568   -5.0294 O.2         1 MOL      -0.1532
     30 O48        41.3274   11.9328   -3.4171 O.2         1 MOL      -0.1532
     31 C49        39.6957    9.7100   -2.9527 C.3         1 MOL       0.1181
     32 C50        38.5736   10.5356   -3.4643 C.ar        1 MOL      -0.0204
     33 C53        38.1051   11.6523   -2.7301 C.ar        1 MOL      -0.0587
     34 C54        37.0210   12.4196   -3.2039 C.ar        1 MOL      -0.0685
     35 C55        36.3985   12.0795   -4.4178 C.ar        1 MOL      -0.0687
     36 C56        36.8572   10.9769   -5.1601 C.ar        1 MOL      -0.0685
     37 C57        37.9389   10.2084   -4.6858 C.ar        1 MOL      -0.0587
     38 H1         45.2905   11.3697    1.7749 H           1 MOL       0.0516
     39 H2         48.0755    9.6839   -0.8972 H           1 MOL       0.0521
     40 H3         49.5813   11.5395   -0.4952 H           1 MOL       0.0585
     41 H4         48.9316   13.3410    0.9858 H           1 MOL       0.0520
     42 H5         44.0128   17.7192    4.1023 H           1 MOL       0.0780
     43 H6         43.4262   18.2347    2.5269 H           1 MOL       0.0780
     44 H7         45.1626    9.2043    1.1034 H           1 MOL       0.1756
     45 H8         45.1866    8.0556   -1.2310 H           1 MOL       0.0548
     46 H9         43.2434   10.0439    0.0648 H           1 MOL       0.0303
     47 H10        43.3048    8.3024    0.3626 H           1 MOL       0.0303
     48 H11        41.4267    9.0415   -1.0665 H           1 MOL       0.0479
     49 H12        42.4350    7.8258   -1.8647 H           1 MOL       0.0479
     50 H13        44.0504   10.6183   -3.9192 H           1 MOL       0.0479
     51 H14        44.1710    8.8669   -3.7176 H           1 MOL       0.0479
     52 H15        46.0347    9.9341   -2.5677 H           1 MOL       0.0303
     53 H16        44.9594   11.0762   -1.7548 H           1 MOL       0.0303
     54 H17        39.6650    9.6932   -1.8614 H           1 MOL       0.0682
     55 H18        39.6021    8.6743   -3.2915 H           1 MOL       0.0682
     56 H19        38.5435   11.9127   -1.8449 H           1 MOL       0.0557
     57 H20        36.6855   13.2195   -2.6623 H           1 MOL       0.0599
     58 H21        35.6104   12.6348   -4.7596 H           1 MOL       0.0559
     59 H22        36.4036   10.7294   -6.0391 H           1 MOL       0.0599
     60 H23        38.2563    9.4087   -5.2349 H           1 MOL       0.0557
@<TRIPOS>BOND
     1     1     2   1
     2     1     5   1
     3     2     3   2
     4     2     6   1
     5     3     4   1
     6     3    16   1
     7     4     5   2
     8     4    15   1
     9     5     9   1
    10     6     7  ar
    11     6     8  ar
    12     9    10  ar
    13     9    14  ar
    14    10    11  ar
    15    11    12  ar
    16    11    21   1
    17    12    13  ar
    18    13    14  ar
    19    16    17   1
    20    17    18   1
    21    18    19  ar
    22    18    20  ar
    23    21    22   1
    24    22    23   1
    25    22    27   1
    26    23    24   1
    27    24    25   1
    28    25    26   1
    29    25    28  am
    30    26    27   1
    31    28    29   2
    32    28    30   2
    33    28    31   1
    34    31    32   1
    35    32    33  ar
    36    32    37  ar
    37    33    34  ar
    38    34    35  ar
    39    35    36  ar
    40    36    37  ar
    41    10    38   1
    42    12    39   1
    43    13    40   1
    44    14    41   1
    45    17    42   1
    46    17    43   1
    47    21    44   1
    48    22    45   1
    49    23    46   1
    50    23    47   1
    51    24    48   1
    52    24    49   1
    53    26    50   1
    54    26    51   1
    55    27    52   1
    56    27    53   1
    57    31    54   1
    58    31    55   1
    59    33    56   1
    60    34    57   1
    61    35    58   1
    62    36    59   1
    63    37    60   1
@<TRIPOS>SUBSTRUCTURE
     1  MOL      2

