@<TRIPOS>MOLECULE
2qbp_ligand_015
    60    63
SMALL
GAST_HUCK
****
This file was generated by PARSER (from files_GN.cpp)

@<TRIPOS>ATOM
      1 S1         44.5947   14.3505    0.0689 S.3         1 MOL      -0.0382
      2 C2         44.9916   15.6844    1.1014 C.2         1 MOL       0.0813
      3 C3         45.8165   15.1930    2.1235 C.2         1 MOL       0.1014
      4 C4         46.1176   13.8162    1.9990 C.2         1 MOL       0.0465
      5 C5         45.5147   13.1649    0.9099 C.2         1 MOL       0.0450
      6 C6         44.4944   16.9872    0.9162 C.2         1 MOL       0.0555
      7 O7         44.0150   17.7195    1.9585 O.co2       1 MOL      -0.5699
      8 O8         44.3927   17.5281   -0.3280 O.co2       1 MOL      -0.5699
      9 C9         45.5257   11.7934    0.6384 C.ar        1 MOL      -0.0166
     10 C10        46.7445   11.1086    0.4191 C.ar        1 MOL      -0.0362
     11 C11        46.8016    9.6918    0.4589 C.ar        1 MOL       0.0383
     12 C12        45.5984    8.9752    0.6280 C.ar        1 MOL      -0.0440
     13 C13        44.3762    9.6475    0.7613 C.ar        1 MOL      -0.0722
     14 C14        44.3388   11.0492    0.7889 C.ar        1 MOL      -0.0655
     15 BR19       47.1550   12.9010    3.2599 Br          1 MOL      -0.0668
     16 O20        46.2808   15.9926    3.1310 O.3         1 MOL      -0.3141
     17 C21        45.7533   15.7276    4.4416 C.3         1 MOL       0.1195
     18 C22        45.4424   17.0050    5.0848 C.2         1 MOL       0.0648
     19 O25        44.1512   17.3391    5.2970 O.co2       1 MOL      -0.5663
     20 O26        46.3775   17.6323    5.8338 O.co2       1 MOL      -0.5663
     21 N29        48.0401    9.1383    0.4189 N.pl3       1 MOL      -0.3201
     22 C30        48.4939    7.9604    1.0857 C.3         1 MOL       0.0379
     23 C31        48.7430    6.7765    0.0995 C.3         1 MOL      -0.0135
     24 C32        50.0226    6.9804   -0.7600 C.3         1 MOL       0.0314
     25 N33        51.1591    7.3107    0.0771 N.am        1 MOL      -0.2365
     26 C34        51.0127    8.4798    0.9224 C.3         1 MOL       0.0314
     27 C35        49.7945    8.2894    1.8684 C.3         1 MOL      -0.0135
     28 S46        52.2893    6.0922    0.4546 S.o2        1 MOL       0.0512
     29 O47        51.5202    4.7634    0.8969 O.2         1 MOL      -0.1532
     30 O48        53.0856    6.4804    1.7877 O.2         1 MOL      -0.1532
     31 C49        53.6037    5.6827   -0.7253 C.3         1 MOL       0.1181
     32 C50        53.5340    6.4979   -1.9582 C.ar        1 MOL      -0.0204
     33 C53        54.4371    7.5686   -2.1695 C.ar        1 MOL      -0.0587
     34 C54        54.3248    8.3937   -3.3053 C.ar        1 MOL      -0.0685
     35 C55        53.3148    8.1501   -4.2518 C.ar        1 MOL      -0.0687
     36 C56        52.4371    7.0621   -4.0728 C.ar        1 MOL      -0.0685
     37 C57        52.5323    6.2500   -2.9237 C.ar        1 MOL      -0.0587
     38 H1         47.6046   11.6487    0.3048 H           1 MOL       0.0516
     39 H2         45.6056    7.9488    0.6322 H           1 MOL       0.0521
     40 H3         43.5094    9.1045    0.8898 H           1 MOL       0.0585
     41 H4         43.4496   11.5144    0.9837 H           1 MOL       0.0520
     42 H5         46.5057   15.1999    5.0345 H           1 MOL       0.0780
     43 H6         44.8491   15.1033    4.4172 H           1 MOL       0.0780
     44 H7         48.7456    9.7048    0.0440 H           1 MOL       0.1756
     45 H8         47.7552    7.6261    1.8192 H           1 MOL       0.0548
     46 H9         47.8796    6.6529   -0.5573 H           1 MOL       0.0303
     47 H10        48.8471    5.8494    0.6746 H           1 MOL       0.0303
     48 H11        49.8569    7.8027   -1.4697 H           1 MOL       0.0479
     49 H12        50.2094    6.0649   -1.3516 H           1 MOL       0.0479
     50 H13        50.8645    9.3546    0.2858 H           1 MOL       0.0479
     51 H14        51.9134    8.6786    1.5120 H           1 MOL       0.0479
     52 H15        50.0240    7.4790    2.5654 H           1 MOL       0.0303
     53 H16        49.6556    9.1959    2.4596 H           1 MOL       0.0303
     54 H17        53.5277    4.6239   -0.9580 H           1 MOL       0.0682
     55 H18        54.5648    5.8268   -0.2318 H           1 MOL       0.0682
     56 H19        55.1881    7.7591   -1.4919 H           1 MOL       0.0557
     57 H20        54.9685    9.1733   -3.4360 H           1 MOL       0.0599
     58 H21        53.2228    8.7535   -5.0702 H           1 MOL       0.0559
     59 H22        51.6994    6.8840   -4.7637 H           1 MOL       0.0599
     60 H23        51.8835    5.4772   -2.8106 H           1 MOL       0.0557
@<TRIPOS>BOND
     1     1     2   1
     2     1     5   1
     3     2     3   2
     4     2     6   1
     5     3     4   1
     6     3    16   1
     7     4     5   2
     8     4    15   1
     9     5     9   1
    10     6     7  ar
    11     6     8  ar
    12     9    10  ar
    13     9    14  ar
    14    10    11  ar
    15    11    12  ar
    16    11    21   1
    17    12    13  ar
    18    13    14  ar
    19    16    17   1
    20    17    18   1
    21    18    19  ar
    22    18    20  ar
    23    21    22   1
    24    22    23   1
    25    22    27   1
    26    23    24   1
    27    24    25   1
    28    25    26   1
    29    25    28  am
    30    26    27   1
    31    28    29   2
    32    28    30   2
    33    28    31   1
    34    31    32   1
    35    32    33  ar
    36    32    37  ar
    37    33    34  ar
    38    34    35  ar
    39    35    36  ar
    40    36    37  ar
    41    10    38   1
    42    12    39   1
    43    13    40   1
    44    14    41   1
    45    17    42   1
    46    17    43   1
    47    21    44   1
    48    22    45   1
    49    23    46   1
    50    23    47   1
    51    24    48   1
    52    24    49   1
    53    26    50   1
    54    26    51   1
    55    27    52   1
    56    27    53   1
    57    31    54   1
    58    31    55   1
    59    33    56   1
    60    34    57   1
    61    35    58   1
    62    36    59   1
    63    37    60   1
@<TRIPOS>SUBSTRUCTURE
     1  MOL      2

