@<TRIPOS>MOLECULE
2qbp_ligand_014
    60    63
SMALL
GAST_HUCK
****
This file was generated by PARSER (from files_GN.cpp)

@<TRIPOS>ATOM
      1 S1         44.6899   13.7816    0.2503 S.3         1 MOL      -0.0382
      2 C2         44.9790   15.2606    1.0791 C.2         1 MOL       0.0813
      3 C3         45.8292   14.9489    2.1527 C.2         1 MOL       0.1014
      4 C4         46.2218   13.5916    2.2182 C.2         1 MOL       0.0465
      5 C5         45.6715   12.7549    1.2258 C.2         1 MOL       0.0450
      6 C6         44.4093   16.5032    0.7342 C.2         1 MOL       0.0555
      7 O7         44.0570   17.4207    1.6645 O.co2       1 MOL      -0.5699
      8 O8         44.1811   16.8169   -0.5598 O.co2       1 MOL      -0.5699
      9 C9         45.7900   11.3428    1.0730 C.ar        1 MOL      -0.0166
     10 C10        47.0302   10.6824    1.2385 C.ar        1 MOL      -0.0362
     11 C11        47.1238    9.2727    1.3113 C.ar        1 MOL       0.0383
     12 C12        45.9548    8.5092    1.0837 C.ar        1 MOL      -0.0440
     13 C13        44.7324    9.1425    0.8086 C.ar        1 MOL      -0.0722
     14 C14        44.6449   10.5471    0.8246 C.ar        1 MOL      -0.0655
     15 BR19       47.2784   12.9845    3.6291 Br          1 MOL      -0.0668
     16 O20        46.2213   15.8913    3.0727 O.3         1 MOL      -0.3141
     17 C21        45.6360   15.6961    4.3771 C.3         1 MOL       0.1195
     18 C22        45.3979   16.9977    5.0191 C.2         1 MOL       0.0648
     19 O25        44.1233   17.3624    5.2748 O.co2       1 MOL      -0.5663
     20 O26        46.3682   17.6010    5.7448 O.co2       1 MOL      -0.5663
     21 N29        48.3278    8.7468    1.6590 N.pl3       1 MOL      -0.3201
     22 C30        48.5976    7.8291    2.7349 C.3         1 MOL       0.0379
     23 C31        48.9610    6.3947    2.2424 C.3         1 MOL      -0.0135
     24 C32        50.4166    6.2795    1.7114 C.3         1 MOL       0.0314
     25 N33        51.3473    6.8711    2.6401 N.am        1 MOL      -0.2365
     26 C34        51.1286    8.2570    2.9654 C.3         1 MOL       0.0314
     27 C35        49.7335    8.4218    3.6249 C.3         1 MOL      -0.0135
     28 S46        52.2102    5.8746    3.7082 S.o2        1 MOL       0.0512
     29 O47        51.2147    4.8614    4.4228 O.2         1 MOL      -0.1532
     30 O48        52.7950    6.7562    4.8981 O.2         1 MOL      -0.1532
     31 C49        53.6424    5.0427    2.9732 C.3         1 MOL       0.1181
     32 C50        53.4221    3.5932    2.7304 C.ar        1 MOL      -0.0204
     33 C53        52.7495    3.1339    1.5735 C.ar        1 MOL      -0.0587
     34 C54        52.5814    1.7569    1.3362 C.ar        1 MOL      -0.0685
     35 C55        53.0941    0.8173    2.2477 C.ar        1 MOL      -0.0687
     36 C56        53.7629    1.2565    3.4021 C.ar        1 MOL      -0.0685
     37 C57        53.9292    2.6333    3.6383 C.ar        1 MOL      -0.0587
     38 H1         47.8797   11.2375    1.3675 H           1 MOL       0.0516
     39 H2         45.9868    7.4876    1.1051 H           1 MOL       0.0521
     40 H3         43.8937    8.5799    0.6427 H           1 MOL       0.0585
     41 H4         43.7253   10.9762    0.6934 H           1 MOL       0.0520
     42 H5         46.3011   15.1147    5.0199 H           1 MOL       0.0780
     43 H6         44.6800   15.1655    4.2996 H           1 MOL       0.0780
     44 H7         49.0996    9.2304    1.3293 H           1 MOL       0.1756
     45 H8         47.7097    7.7571    3.3720 H           1 MOL       0.0548
     46 H9         48.2639    6.0800    1.4607 H           1 MOL       0.0303
     47 H10        48.8465    5.6998    3.0790 H           1 MOL       0.0303
     48 H11        50.4931    6.7988    0.7528 H           1 MOL       0.0479
     49 H12        50.6427    5.2290    1.5192 H           1 MOL       0.0479
     50 H13        51.1682    8.8382    2.0448 H           1 MOL       0.0479
     51 H14        51.8961    8.6710    3.6227 H           1 MOL       0.0479
     52 H15        49.7411    7.9081    4.5911 H           1 MOL       0.0303
     53 H16        49.5462    9.4828    3.8202 H           1 MOL       0.0303
     54 H17        54.4997    5.1566    3.6377 H           1 MOL       0.0682
     55 H18        53.8838    5.5673    2.0462 H           1 MOL       0.0682
     56 H19        52.3774    3.7993    0.8923 H           1 MOL       0.0557
     57 H20        52.0948    1.4383    0.4962 H           1 MOL       0.0599
     58 H21        52.9844   -0.1828    2.0690 H           1 MOL       0.0559
     59 H22        54.1342    0.5747    4.0678 H           1 MOL       0.0599
     60 H23        54.4326    2.9302    4.4780 H           1 MOL       0.0557
@<TRIPOS>BOND
     1     1     2   1
     2     1     5   1
     3     2     3   2
     4     2     6   1
     5     3     4   1
     6     3    16   1
     7     4     5   2
     8     4    15   1
     9     5     9   1
    10     6     7  ar
    11     6     8  ar
    12     9    10  ar
    13     9    14  ar
    14    10    11  ar
    15    11    12  ar
    16    11    21   1
    17    12    13  ar
    18    13    14  ar
    19    16    17   1
    20    17    18   1
    21    18    19  ar
    22    18    20  ar
    23    21    22   1
    24    22    23   1
    25    22    27   1
    26    23    24   1
    27    24    25   1
    28    25    26   1
    29    25    28  am
    30    26    27   1
    31    28    29   2
    32    28    30   2
    33    28    31   1
    34    31    32   1
    35    32    33  ar
    36    32    37  ar
    37    33    34  ar
    38    34    35  ar
    39    35    36  ar
    40    36    37  ar
    41    10    38   1
    42    12    39   1
    43    13    40   1
    44    14    41   1
    45    17    42   1
    46    17    43   1
    47    21    44   1
    48    22    45   1
    49    23    46   1
    50    23    47   1
    51    24    48   1
    52    24    49   1
    53    26    50   1
    54    26    51   1
    55    27    52   1
    56    27    53   1
    57    31    54   1
    58    31    55   1
    59    33    56   1
    60    34    57   1
    61    35    58   1
    62    36    59   1
    63    37    60   1
@<TRIPOS>SUBSTRUCTURE
     1  MOL      2

