@<TRIPOS>MOLECULE
2qbp_ligand_019
    60    63
SMALL
GAST_HUCK
****
This file was generated by PARSER (from files_GN.cpp)

@<TRIPOS>ATOM
      1 S1         46.8517   12.1359    3.2129 S.3         1 MOL      -0.0382
      2 C2         46.2954   13.7498    3.4231 C.2         1 MOL       0.0813
      3 C3         45.7774   14.1703    2.1933 C.2         1 MOL       0.1014
      4 C4         45.8872   13.1986    1.1645 C.2         1 MOL       0.0465
      5 C5         46.4772   11.9752    1.5412 C.2         1 MOL       0.0450
      6 C6         46.3997   14.4682    4.6157 C.2         1 MOL       0.0555
      7 O7         46.8948   15.7357    4.5990 O.co2       1 MOL      -0.5699
      8 O8         45.6923   14.0578    5.6969 O.co2       1 MOL      -0.5699
      9 C9         46.7199   10.7567    0.8574 C.ar        1 MOL      -0.0166
     10 C10        45.8169   10.2515   -0.1196 C.ar        1 MOL      -0.0362
     11 C11        45.9166    8.9261   -0.6264 C.ar        1 MOL       0.0383
     12 C12        46.9646    8.1041   -0.1416 C.ar        1 MOL      -0.0440
     13 C13        47.9292    8.6167    0.7354 C.ar        1 MOL      -0.0722
     14 C14        47.8163    9.9293    1.2143 C.ar        1 MOL      -0.0655
     15 BR19       45.3277   13.6154   -0.5599 Br          1 MOL      -0.0668
     16 O20        45.2444   15.4243    2.0416 O.3         1 MOL      -0.3141
     17 C21        44.0538   15.6871    2.8184 C.3         1 MOL       0.1195
     18 C22        44.0981   17.0765    3.3008 C.2         1 MOL       0.0648
     19 O25        44.0316   18.1011    2.4265 O.co2       1 MOL      -0.5663
     20 O26        44.0897   17.3565    4.6246 O.co2       1 MOL      -0.5663
     21 N29        45.0999    8.3568   -1.5607 N.pl3       1 MOL      -0.3201
     22 C30        44.3625    8.9821   -2.6243 C.3         1 MOL       0.0379
     23 C31        44.0691    7.8905   -3.6966 C.3         1 MOL      -0.0135
     24 C32        42.8598    6.9856   -3.3103 C.3         1 MOL       0.0314
     25 N33        41.7069    7.7956   -3.0111 N.am        1 MOL      -0.2365
     26 C34        41.8412    8.7689   -1.9598 C.3         1 MOL       0.0314
     27 C35        43.0248    9.7216   -2.2737 C.3         1 MOL      -0.0135
     28 S46        40.3331    7.8054   -4.0006 S.o2        1 MOL       0.0512
     29 O47        39.1069    7.3075   -3.1149 O.2         1 MOL      -0.1532
     30 O48        40.4112    6.6733   -5.1161 O.2         1 MOL      -0.1532
     31 C49        39.9691    9.3784   -4.8143 C.3         1 MOL       0.1181
     32 C50        38.5989    9.8634   -4.5062 C.ar        1 MOL      -0.0204
     33 C53        37.5370    9.6638   -5.4208 C.ar        1 MOL      -0.0587
     34 C54        36.2358   10.1100   -5.1206 C.ar        1 MOL      -0.0685
     35 C55        35.9780   10.7632   -3.9028 C.ar        1 MOL      -0.0687
     36 C56        37.0210   10.9664   -2.9835 C.ar        1 MOL      -0.0685
     37 C57        38.3222   10.5186   -3.2810 C.ar        1 MOL      -0.0587
     38 H1         45.0285   10.8129   -0.4121 H           1 MOL       0.0516
     39 H2         47.0652    7.1292   -0.4657 H           1 MOL       0.0521
     40 H3         48.7245    8.0323    1.0368 H           1 MOL       0.0585
     41 H4         48.5289   10.2780    1.8556 H           1 MOL       0.0520
     42 H5         43.9458   15.0261    3.6839 H           1 MOL       0.0780
     43 H6         43.1751   15.5595    2.1812 H           1 MOL       0.0780
     44 H7         45.2134    7.3883   -1.6631 H           1 MOL       0.1756
     45 H8         45.0288    9.7080   -3.0814 H           1 MOL       0.0548
     46 H9         44.9465    7.2553   -3.8564 H           1 MOL       0.0303
     47 H10        43.8424    8.3736   -4.6481 H           1 MOL       0.0303
     48 H11        43.1035    6.3938   -2.4229 H           1 MOL       0.0479
     49 H12        42.6738    6.2770   -4.1281 H           1 MOL       0.0479
     50 H13        42.0077    8.2667   -1.0100 H           1 MOL       0.0479
     51 H14        40.9411    9.3773   -1.8448 H           1 MOL       0.0479
     52 H15        42.7462   10.3232   -3.1458 H           1 MOL       0.0303
     53 H16        43.1496   10.4083   -1.4397 H           1 MOL       0.0303
     54 H17        40.1017    9.2446   -5.8928 H           1 MOL       0.0682
     55 H18        40.7003   10.1272   -4.4986 H           1 MOL       0.0682
     56 H19        37.7027    9.1825   -6.3087 H           1 MOL       0.0557
     57 H20        35.4763    9.9521   -5.7866 H           1 MOL       0.0599
     58 H21        35.0342   11.0857   -3.6854 H           1 MOL       0.0559
     59 H22        36.8334   11.4394   -2.0942 H           1 MOL       0.0599
     60 H23        39.0665   10.6752   -2.5980 H           1 MOL       0.0557
@<TRIPOS>BOND
     1     1     2   1
     2     1     5   1
     3     2     3   2
     4     2     6   1
     5     3     4   1
     6     3    16   1
     7     4     5   2
     8     4    15   1
     9     5     9   1
    10     6     7  ar
    11     6     8  ar
    12     9    10  ar
    13     9    14  ar
    14    10    11  ar
    15    11    12  ar
    16    11    21   1
    17    12    13  ar
    18    13    14  ar
    19    16    17   1
    20    17    18   1
    21    18    19  ar
    22    18    20  ar
    23    21    22   1
    24    22    23   1
    25    22    27   1
    26    23    24   1
    27    24    25   1
    28    25    26   1
    29    25    28  am
    30    26    27   1
    31    28    29   2
    32    28    30   2
    33    28    31   1
    34    31    32   1
    35    32    33  ar
    36    32    37  ar
    37    33    34  ar
    38    34    35  ar
    39    35    36  ar
    40    36    37  ar
    41    10    38   1
    42    12    39   1
    43    13    40   1
    44    14    41   1
    45    17    42   1
    46    17    43   1
    47    21    44   1
    48    22    45   1
    49    23    46   1
    50    23    47   1
    51    24    48   1
    52    24    49   1
    53    26    50   1
    54    26    51   1
    55    27    52   1
    56    27    53   1
    57    31    54   1
    58    31    55   1
    59    33    56   1
    60    34    57   1
    61    35    58   1
    62    36    59   1
    63    37    60   1
@<TRIPOS>SUBSTRUCTURE
     1  MOL      2

