@<TRIPOS>MOLECULE
2qbp_ligand_012
    60    63
SMALL
GAST_HUCK
****
This file was generated by PARSER (from files_GN.cpp)

@<TRIPOS>ATOM
      1 S1         44.7186   14.4179    0.4089 S.3         1 MOL      -0.0382
      2 C2         45.2169   15.6316    1.5282 C.2         1 MOL       0.0813
      3 C3         46.0351   14.9890    2.4782 C.2         1 MOL       0.1014
      4 C4         46.2278   13.6089    2.2354 C.2         1 MOL       0.0465
      5 C5         45.5685   13.0944    1.1105 C.2         1 MOL       0.0450
      6 C6         44.8639   16.9950    1.4606 C.2         1 MOL       0.0555
      7 O7         45.7549   17.9761    1.7430 O.co2       1 MOL      -0.5699
      8 O8         43.6770   17.3778    0.9445 O.co2       1 MOL      -0.5699
      9 C9         45.5881   11.7729    0.6181 C.ar        1 MOL      -0.0166
     10 C10        46.7080   11.2891   -0.0996 C.ar        1 MOL      -0.0362
     11 C11        46.7854    9.9471   -0.5392 C.ar        1 MOL       0.0383
     12 C12        45.6791    9.1010   -0.2899 C.ar        1 MOL      -0.0440
     13 C13        44.5574    9.5699    0.4187 C.ar        1 MOL      -0.0722
     14 C14        44.5091   10.8965    0.8656 C.ar        1 MOL      -0.0655
     15 BR19       47.2222   12.5416    3.3880 Br          1 MOL      -0.0668
     16 O20        46.6083   15.6401    3.5362 O.3         1 MOL      -0.3141
     17 C21        45.8657   15.5787    4.7729 C.3         1 MOL       0.1195
     18 C22        45.5130   16.9417    5.1840 C.2         1 MOL       0.0648
     19 O25        44.2165   17.3087    5.3071 O.co2       1 MOL      -0.5663
     20 O26        46.4234   17.6554    5.8833 O.co2       1 MOL      -0.5663
     21 N29        47.9484    9.5902   -1.1526 N.pl3       1 MOL      -0.3201
     22 C30        48.6029    8.3299   -1.4047 C.3         1 MOL       0.0379
     23 C31        50.1294    8.6659   -1.3553 C.3         1 MOL      -0.0135
     24 C32        51.0405    7.4233   -1.3843 C.3         1 MOL       0.0314
     25 N33        50.6481    6.5275   -0.3315 N.am        1 MOL      -0.2365
     26 C34        49.3017    6.0084   -0.3959 C.3         1 MOL       0.0314
     27 C35        48.2586    7.1473   -0.4309 C.3         1 MOL      -0.0135
     28 S46        51.5612    6.4198    1.0972 S.o2        1 MOL       0.0512
     29 O47        53.0917    6.2446    0.7015 O.2         1 MOL      -0.1532
     30 O48        51.2486    5.0327    1.8256 O.2         1 MOL      -0.1532
     31 C49        51.4429    7.8076    2.2512 C.3         1 MOL       0.1181
     32 C50        50.2056    7.7843    3.0663 C.ar        1 MOL      -0.0204
     33 C53        49.0964    8.6156    2.7713 C.ar        1 MOL      -0.0587
     34 C54        47.9258    8.5595    3.5420 C.ar        1 MOL      -0.0685
     35 C55        47.8647    7.7144    4.6728 C.ar        1 MOL      -0.0687
     36 C56        48.9659    6.9046    4.9974 C.ar        1 MOL      -0.0685
     37 C57        50.1270    6.9443    4.2111 C.ar        1 MOL      -0.0587
     38 H1         47.4886   11.9258   -0.2823 H           1 MOL       0.0516
     39 H2         45.6638    8.1408   -0.6231 H           1 MOL       0.0521
     40 H3         43.7739    8.9412    0.5944 H           1 MOL       0.0585
     41 H4         43.6973   11.2151    1.3946 H           1 MOL       0.0520
     42 H5         46.5211   15.1484    5.5323 H           1 MOL       0.0780
     43 H6         44.9697   14.9446    4.7362 H           1 MOL       0.0780
     44 H7         48.5170   10.3555   -1.3553 H           1 MOL       0.1756
     45 H8         48.3593    8.0139   -2.4273 H           1 MOL       0.0548
     46 H9         50.3464    9.2130   -0.4283 H           1 MOL       0.0303
     47 H10        50.3910    9.3151   -2.1962 H           1 MOL       0.0303
     48 H11        52.0857    7.7403   -1.2928 H           1 MOL       0.0479
     49 H12        50.9412    6.9186   -2.3537 H           1 MOL       0.0479
     50 H13        49.0799    5.3401    0.4420 H           1 MOL       0.0479
     51 H14        49.2123    5.4114   -1.3106 H           1 MOL       0.0479
     52 H15        47.3184    6.6853   -0.7349 H           1 MOL       0.0303
     53 H16        48.1275    7.5418    0.5768 H           1 MOL       0.0303
     54 H17        51.5145    8.7201    1.6558 H           1 MOL       0.0682
     55 H18        52.3081    7.7889    2.9177 H           1 MOL       0.0682
     56 H19        49.1231    9.2424    1.9588 H           1 MOL       0.0557
     57 H20        47.1168    9.1359    3.2987 H           1 MOL       0.0599
     58 H21        47.0200    7.6824    5.2436 H           1 MOL       0.0559
     59 H22        48.9277    6.2922    5.8218 H           1 MOL       0.0599
     60 H23        50.9197    6.3529    4.4704 H           1 MOL       0.0557
@<TRIPOS>BOND
     1     1     2   1
     2     1     5   1
     3     2     3   2
     4     2     6   1
     5     3     4   1
     6     3    16   1
     7     4     5   2
     8     4    15   1
     9     5     9   1
    10     6     7  ar
    11     6     8  ar
    12     9    10  ar
    13     9    14  ar
    14    10    11  ar
    15    11    12  ar
    16    11    21   1
    17    12    13  ar
    18    13    14  ar
    19    16    17   1
    20    17    18   1
    21    18    19  ar
    22    18    20  ar
    23    21    22   1
    24    22    23   1
    25    22    27   1
    26    23    24   1
    27    24    25   1
    28    25    26   1
    29    25    28  am
    30    26    27   1
    31    28    29   2
    32    28    30   2
    33    28    31   1
    34    31    32   1
    35    32    33  ar
    36    32    37  ar
    37    33    34  ar
    38    34    35  ar
    39    35    36  ar
    40    36    37  ar
    41    10    38   1
    42    12    39   1
    43    13    40   1
    44    14    41   1
    45    17    42   1
    46    17    43   1
    47    21    44   1
    48    22    45   1
    49    23    46   1
    50    23    47   1
    51    24    48   1
    52    24    49   1
    53    26    50   1
    54    26    51   1
    55    27    52   1
    56    27    53   1
    57    31    54   1
    58    31    55   1
    59    33    56   1
    60    34    57   1
    61    35    58   1
    62    36    59   1
    63    37    60   1
@<TRIPOS>SUBSTRUCTURE
     1  MOL      2

