@<TRIPOS>MOLECULE
2qbp_ligand_083
    60    63
SMALL
GAST_HUCK
****
This file was generated by PARSER (from files_GN.cpp)

@<TRIPOS>ATOM
      1 S1         43.8927   15.7788    1.2080 S.3         1 MOL      -0.0382
      2 C2         44.4414   16.2303    2.7705 C.2         1 MOL       0.0813
      3 C3         45.2361   15.1746    3.2336 C.2         1 MOL       0.1014
      4 C4         45.3162   14.0691    2.3574 C.2         1 MOL       0.0465
      5 C5         44.6132   14.2171    1.1480 C.2         1 MOL       0.0450
      6 C6         44.0921   17.4236    3.4115 C.2         1 MOL       0.0555
      7 O7         43.5859   18.4590    2.7051 O.co2       1 MOL      -0.5699
      8 O8         43.9924   17.4603    4.7595 O.co2       1 MOL      -0.5699
      9 C9         44.3980   13.3066    0.0800 C.ar        1 MOL      -0.0166
     10 C10        44.3557   13.7762   -1.2548 C.ar        1 MOL      -0.0362
     11 C11        43.9743   12.9372   -2.3247 C.ar        1 MOL       0.0383
     12 C12        43.6810   11.5810   -2.0493 C.ar        1 MOL      -0.0440
     13 C13        43.7563   11.0882   -0.7346 C.ar        1 MOL      -0.0722
     14 C14        44.0932   11.9491    0.3267 C.ar        1 MOL      -0.0655
     15 BR19       46.3929   12.6022    2.7572 Br          1 MOL      -0.0668
     16 O20        45.9186   15.1900    4.4222 O.3         1 MOL      -0.3141
     17 C21        47.2082   15.8472    4.3645 C.3         1 MOL       0.1195
     18 C22        47.0916   17.2572    4.7665 C.2         1 MOL       0.0648
     19 O25        46.6757   17.5844    6.0080 O.co2       1 MOL      -0.5663
     20 O26        47.4510   18.2518    3.9284 O.co2       1 MOL      -0.5663
     21 N29        43.8865   13.5215   -3.5483 N.pl3       1 MOL      -0.3201
     22 C30        43.3702   12.9840   -4.7717 C.3         1 MOL       0.0379
     23 C31        42.8233   14.1588   -5.6286 C.3         1 MOL      -0.0135
     24 C32        42.3318   13.6678   -7.0119 C.3         1 MOL       0.0314
     25 N33        43.3408   12.8833   -7.6842 N.am        1 MOL      -0.2365
     26 C34        43.9677   11.7961   -6.9695 C.3         1 MOL       0.0314
     27 C35        44.4715   12.2307   -5.5660 C.3         1 MOL      -0.0135
     28 S46        43.3479   12.8459   -9.3809 S.o2        1 MOL       0.0512
     29 O47        44.8501   12.6556   -9.8827 O.2         1 MOL      -0.1532
     30 O48        42.9984   14.2763   -9.9658 O.2         1 MOL      -0.1532
     31 C49        42.3259   11.5970  -10.1951 C.3         1 MOL       0.1181
     32 C50        40.9317   11.6526   -9.6921 C.ar        1 MOL      -0.0204
     33 C53        40.5177   10.8235   -8.6239 C.ar        1 MOL      -0.0587
     34 C54        39.2114   10.9161   -8.1088 C.ar        1 MOL      -0.0685
     35 C55        38.3020   11.8338   -8.6603 C.ar        1 MOL      -0.0687
     36 C56        38.6961   12.6575   -9.7305 C.ar        1 MOL      -0.0685
     37 C57        40.0020   12.5673  -10.2441 C.ar        1 MOL      -0.0587
     38 H1         44.5745   14.7577   -1.4492 H           1 MOL       0.0516
     39 H2         43.4027   10.9424   -2.7967 H           1 MOL       0.0521
     40 H3         43.5286   10.1104   -0.5391 H           1 MOL       0.0585
     41 H4         44.0644   11.5812    1.2825 H           1 MOL       0.0520
     42 H5         47.6882   15.7689    3.3800 H           1 MOL       0.0780
     43 H6         47.8662   15.3555    5.0814 H           1 MOL       0.0780
     44 H7         44.1386   14.4585   -3.5841 H           1 MOL       0.1756
     45 H8         42.5333   12.3071   -4.5648 H           1 MOL       0.0548
     46 H9         43.6107   14.9069   -5.7769 H           1 MOL       0.0303
     47 H10        41.9921   14.6416   -5.1059 H           1 MOL       0.0303
     48 H11        42.0577   14.5538   -7.5931 H           1 MOL       0.0479
     49 H12        41.4353   13.0581   -6.8805 H           1 MOL       0.0479
     50 H13        44.8300   11.4007   -7.5214 H           1 MOL       0.0479
     51 H14        43.2461   10.9818   -6.8567 H           1 MOL       0.0479
     52 H15        44.7897   11.3430   -5.0096 H           1 MOL       0.0303
     53 H16        45.3412   12.8851   -5.6913 H           1 MOL       0.0303
     54 H17        42.7589   10.6070  -10.0132 H           1 MOL       0.0682
     55 H18        42.3555   11.7732  -11.2732 H           1 MOL       0.0682
     56 H19        41.1674   10.1572   -8.2028 H           1 MOL       0.0557
     57 H20        38.9269   10.3181   -7.3307 H           1 MOL       0.0599
     58 H21        37.3544   11.9026   -8.2858 H           1 MOL       0.0559
     59 H22        38.0349   13.3252  -10.1329 H           1 MOL       0.0599
     60 H23        40.2767   13.1783  -11.0199 H           1 MOL       0.0557
@<TRIPOS>BOND
     1     1     2   1
     2     1     5   1
     3     2     3   2
     4     2     6   1
     5     3     4   1
     6     3    16   1
     7     4     5   2
     8     4    15   1
     9     5     9   1
    10     6     7  ar
    11     6     8  ar
    12     9    10  ar
    13     9    14  ar
    14    10    11  ar
    15    11    12  ar
    16    11    21   1
    17    12    13  ar
    18    13    14  ar
    19    16    17   1
    20    17    18   1
    21    18    19  ar
    22    18    20  ar
    23    21    22   1
    24    22    23   1
    25    22    27   1
    26    23    24   1
    27    24    25   1
    28    25    26   1
    29    25    28  am
    30    26    27   1
    31    28    29   2
    32    28    30   2
    33    28    31   1
    34    31    32   1
    35    32    33  ar
    36    32    37  ar
    37    33    34  ar
    38    34    35  ar
    39    35    36  ar
    40    36    37  ar
    41    10    38   1
    42    12    39   1
    43    13    40   1
    44    14    41   1
    45    17    42   1
    46    17    43   1
    47    21    44   1
    48    22    45   1
    49    23    46   1
    50    23    47   1
    51    24    48   1
    52    24    49   1
    53    26    50   1
    54    26    51   1
    55    27    52   1
    56    27    53   1
    57    31    54   1
    58    31    55   1
    59    33    56   1
    60    34    57   1
    61    35    58   1
    62    36    59   1
    63    37    60   1
@<TRIPOS>SUBSTRUCTURE
     1  MOL      2

