@<TRIPOS>MOLECULE
2qbp_ligand_009
    60    63
SMALL
GAST_HUCK
****
This file was generated by PARSER (from files_GN.cpp)

@<TRIPOS>ATOM
      1 S1         44.8357   17.6227    1.7696 S.3         1 MOL      -0.0382
      2 C2         45.9593   17.2962    3.0468 C.2         1 MOL       0.0813
      3 C3         46.4325   15.9993    2.8273 C.2         1 MOL       0.1014
      4 C4         45.9040   15.3548    1.6821 C.2         1 MOL       0.0465
      5 C5         45.0370   16.1299    0.9051 C.2         1 MOL       0.0450
      6 C6         46.0479   18.0828    4.1725 C.2         1 MOL       0.0555
      7 O7         47.1729   18.7984    4.4088 O.co2       1 MOL      -0.5699
      8 O8         45.1770   17.9331    5.1934 O.co2       1 MOL      -0.5699
      9 C9         44.2846   15.7668   -0.2583 C.ar        1 MOL      -0.0166
     10 C10        44.6716   14.7147   -1.1093 C.ar        1 MOL      -0.0362
     11 C11        43.7761   14.1140   -2.0220 C.ar        1 MOL       0.0383
     12 C12        42.5315   14.7431   -2.2330 C.ar        1 MOL      -0.0440
     13 C13        42.1714   15.8994   -1.5107 C.ar        1 MOL      -0.0722
     14 C14        43.0345   16.3813   -0.5189 C.ar        1 MOL      -0.0655
     15 BR19       46.2489   13.5252    1.4623 Br          1 MOL      -0.0668
     16 O20        47.2777   15.3290    3.6697 O.3         1 MOL      -0.3141
     17 C21        46.8546   15.1265    5.0423 C.3         1 MOL       0.1195
     18 C22        45.3916   14.9973    5.2660 C.2         1 MOL       0.0648
     19 O25        44.5189   15.6859    4.4993 O.co2       1 MOL      -0.5663
     20 O26        44.9550   14.7913    6.5383 O.co2       1 MOL      -0.5663
     21 N29        44.1386   12.9206   -2.5541 N.pl3       1 MOL      -0.3201
     22 C30        43.2737   11.8049   -2.7991 C.3         1 MOL       0.0379
     23 C31        43.3590   11.3383   -4.2740 C.3         1 MOL      -0.0135
     24 C32        42.5620   10.0274   -4.4930 C.3         1 MOL       0.0314
     25 N33        42.8829    9.0033   -3.5198 N.am        1 MOL      -0.2365
     26 C34        42.9041    9.3510   -2.1163 C.3         1 MOL       0.0314
     27 C35        43.7002   10.6535   -1.8505 C.3         1 MOL      -0.0135
     28 S46        42.7769    7.3899   -3.9983 S.o2        1 MOL       0.0512
     29 O47        42.5336    6.4014   -2.7428 O.2         1 MOL      -0.1532
     30 O48        44.1930    6.9705   -4.5734 O.2         1 MOL      -0.1532
     31 C49        41.5135    6.9978   -5.2388 C.3         1 MOL       0.1181
     32 C50        40.1813    6.6199   -4.6890 C.ar        1 MOL      -0.0204
     33 C53        39.5062    5.4734   -5.1794 C.ar        1 MOL      -0.0587
     34 C54        38.2219    5.1412   -4.6987 C.ar        1 MOL      -0.0685
     35 C55        37.6021    5.9481   -3.7351 C.ar        1 MOL      -0.0687
     36 C56        38.2608    7.0900   -3.2424 C.ar        1 MOL      -0.0685
     37 C57        39.5391    7.4259   -3.7280 C.ar        1 MOL      -0.0587
     38 H1         45.5928   14.2930   -1.0039 H           1 MOL       0.0516
     39 H2         41.8745   14.3707   -2.9095 H           1 MOL       0.0521
     40 H3         41.2613   16.3309   -1.6552 H           1 MOL       0.0585
     41 H4         42.6918   17.1545    0.0547 H           1 MOL       0.0520
     42 H5         47.2508   15.9320    5.6778 H           1 MOL       0.0780
     43 H6         47.3454   14.1955    5.3586 H           1 MOL       0.0780
     44 H7         45.0882   12.6952   -2.5250 H           1 MOL       0.1756
     45 H8         42.2255   12.0409   -2.5730 H           1 MOL       0.0548
     46 H9         44.4040   11.1700   -4.5514 H           1 MOL       0.0303
     47 H10        42.9544   12.1175   -4.9262 H           1 MOL       0.0303
     48 H11        42.7795    9.6870   -5.5080 H           1 MOL       0.0479
     49 H12        41.4909   10.2364   -4.4310 H           1 MOL       0.0479
     50 H13        43.3711    8.5608   -1.5209 H           1 MOL       0.0479
     51 H14        41.8768    9.4674   -1.7656 H           1 MOL       0.0479
     52 H15        43.5435   10.9615   -0.8114 H           1 MOL       0.0303
     53 H16        44.7678   10.4431   -1.9792 H           1 MOL       0.0303
     54 H17        41.9246    6.1955   -5.8610 H           1 MOL       0.0682
     55 H18        41.3870    7.8646   -5.8915 H           1 MOL       0.0682
     56 H19        39.9317    4.8834   -5.8904 H           1 MOL       0.0557
     57 H20        37.7416    4.3171   -5.0643 H           1 MOL       0.0599
     58 H21        36.6647    5.7105   -3.3922 H           1 MOL       0.0559
     59 H22        37.8069    7.6778   -2.5413 H           1 MOL       0.0599
     60 H23        39.9957    8.2651   -3.3606 H           1 MOL       0.0557
@<TRIPOS>BOND
     1     1     2   1
     2     1     5   1
     3     2     3   2
     4     2     6   1
     5     3     4   1
     6     3    16   1
     7     4     5   2
     8     4    15   1
     9     5     9   1
    10     6     7  ar
    11     6     8  ar
    12     9    10  ar
    13     9    14  ar
    14    10    11  ar
    15    11    12  ar
    16    11    21   1
    17    12    13  ar
    18    13    14  ar
    19    16    17   1
    20    17    18   1
    21    18    19  ar
    22    18    20  ar
    23    21    22   1
    24    22    23   1
    25    22    27   1
    26    23    24   1
    27    24    25   1
    28    25    26   1
    29    25    28  am
    30    26    27   1
    31    28    29   2
    32    28    30   2
    33    28    31   1
    34    31    32   1
    35    32    33  ar
    36    32    37  ar
    37    33    34  ar
    38    34    35  ar
    39    35    36  ar
    40    36    37  ar
    41    10    38   1
    42    12    39   1
    43    13    40   1
    44    14    41   1
    45    17    42   1
    46    17    43   1
    47    21    44   1
    48    22    45   1
    49    23    46   1
    50    23    47   1
    51    24    48   1
    52    24    49   1
    53    26    50   1
    54    26    51   1
    55    27    52   1
    56    27    53   1
    57    31    54   1
    58    31    55   1
    59    33    56   1
    60    34    57   1
    61    35    58   1
    62    36    59   1
    63    37    60   1
@<TRIPOS>SUBSTRUCTURE
     1  MOL      2

