@<TRIPOS>MOLECULE
2qbp_ligand_013
    60    63
SMALL
GAST_HUCK
****
This file was generated by PARSER (from files_GN.cpp)

@<TRIPOS>ATOM
      1 S1         46.9752   14.1328    4.0550 S.3         1 MOL      -0.0382
      2 C2         45.6088   15.1714    4.1795 C.2         1 MOL       0.0813
      3 C3         44.7225   14.8162    3.1535 C.2         1 MOL       0.1014
      4 C4         45.1556   13.7175    2.3686 C.2         1 MOL       0.0465
      5 C5         46.4199   13.2198    2.7096 C.2         1 MOL       0.0450
      6 C6         45.4469   16.1588    5.1642 C.2         1 MOL       0.0555
      7 O7         46.5016   16.6411    5.8623 O.co2       1 MOL      -0.5699
      8 O8         44.2132   16.5619    5.5373 O.co2       1 MOL      -0.5699
      9 C9         47.1397   12.1338    2.1823 C.ar        1 MOL      -0.0166
     10 C10        46.9497   10.8475    2.7115 C.ar        1 MOL      -0.0362
     11 C11        47.8207    9.7814    2.3767 C.ar        1 MOL       0.0383
     12 C12        48.8277   10.0043    1.4163 C.ar        1 MOL      -0.0440
     13 C13        48.9838   11.2803    0.8293 C.ar        1 MOL      -0.0722
     14 C14        48.1747   12.3455    1.2312 C.ar        1 MOL      -0.0655
     15 BR19       44.1233   12.9819    1.0059 Br          1 MOL      -0.0668
     16 O20        43.5399   15.4768    2.9432 O.3         1 MOL      -0.3141
     17 C21        43.5966   16.5490    1.9753 C.3         1 MOL       0.1195
     18 C22        44.4633   17.6704    2.3615 C.2         1 MOL       0.0648
     19 O25        45.4160   18.1576    1.5277 O.co2       1 MOL      -0.5663
     20 O26        44.3525   18.2198    3.5960 O.co2       1 MOL      -0.5663
     21 N29        47.6471    8.6167    3.0582 N.pl3       1 MOL      -0.3201
     22 C30        48.6135    7.5768    3.2731 C.3         1 MOL       0.0379
     23 C31        48.3571    6.9680    4.6764 C.3         1 MOL      -0.0135
     24 C32        49.3054    5.7771    4.9732 C.3         1 MOL       0.0314
     25 N33        49.3112    4.8032    3.9101 N.am        1 MOL      -0.2365
     26 C34        49.4491    5.2637    2.5509 C.3         1 MOL       0.0314
     27 C35        48.5140    6.4558    2.2041 C.3         1 MOL      -0.0135
     28 S46        49.8426    3.2174    4.2407 S.o2        1 MOL       0.0512
     29 O47        51.2222    2.9542    3.4948 O.2         1 MOL      -0.1532
     30 O48        48.7984    2.2564    3.5086 O.2         1 MOL      -0.1532
     31 C49        49.9405    2.5999    5.9432 C.3         1 MOL       0.1181
     32 C50        51.3301    2.3115    6.3784 C.ar        1 MOL      -0.0204
     33 C53        52.3208    3.3199    6.3304 C.ar        1 MOL      -0.0587
     34 C54        53.6364    3.0555    6.7421 C.ar        1 MOL      -0.0685
     35 C55        53.9812    1.7756    7.2233 C.ar        1 MOL      -0.0687
     36 C56        53.0046    0.7724    7.2997 C.ar        1 MOL      -0.0685
     37 C57        51.6877    1.0312    6.8808 C.ar        1 MOL      -0.0587
     38 H1         46.2281   10.6956    3.4215 H           1 MOL       0.0516
     39 H2         49.4571    9.2517    1.1205 H           1 MOL       0.0521
     40 H3         49.7270   11.4281    0.1367 H           1 MOL       0.0585
     41 H4         48.3375   13.2783    0.8440 H           1 MOL       0.0520
     42 H5         42.5880   16.9462    1.8709 H           1 MOL       0.0780
     43 H6         43.8967   16.1617    1.0008 H           1 MOL       0.0780
     44 H7         46.8569    8.5703    3.6215 H           1 MOL       0.1756
     45 H8         49.6272    7.9910    3.2672 H           1 MOL       0.0548
     46 H9         47.3212    6.6119    4.7384 H           1 MOL       0.0303
     47 H10        48.4959    7.7357    5.4452 H           1 MOL       0.0303
     48 H11        48.9594    5.3453    5.9096 H           1 MOL       0.0479
     49 H12        50.3224    6.1450    5.1248 H           1 MOL       0.0479
     50 H13        49.2255    4.4625    1.8402 H           1 MOL       0.0479
     51 H14        50.4890    5.5682    2.3889 H           1 MOL       0.0479
     52 H15        48.7864    6.8581    1.2260 H           1 MOL       0.0303
     53 H16        47.4857    6.0938    2.1522 H           1 MOL       0.0303
     54 H17        49.3194    1.7042    6.0118 H           1 MOL       0.0682
     55 H18        49.5185    3.3162    6.6450 H           1 MOL       0.0682
     56 H19        52.0864    4.2598    5.9913 H           1 MOL       0.0557
     57 H20        54.3423    3.7921    6.6984 H           1 MOL       0.0599
     58 H21        54.9390    1.5870    7.5297 H           1 MOL       0.0559
     59 H22        53.2479   -0.1554    7.6574 H           1 MOL       0.0599
     60 H23        50.9915    0.2866    6.9397 H           1 MOL       0.0557
@<TRIPOS>BOND
     1     1     2   1
     2     1     5   1
     3     2     3   2
     4     2     6   1
     5     3     4   1
     6     3    16   1
     7     4     5   2
     8     4    15   1
     9     5     9   1
    10     6     7  ar
    11     6     8  ar
    12     9    10  ar
    13     9    14  ar
    14    10    11  ar
    15    11    12  ar
    16    11    21   1
    17    12    13  ar
    18    13    14  ar
    19    16    17   1
    20    17    18   1
    21    18    19  ar
    22    18    20  ar
    23    21    22   1
    24    22    23   1
    25    22    27   1
    26    23    24   1
    27    24    25   1
    28    25    26   1
    29    25    28  am
    30    26    27   1
    31    28    29   2
    32    28    30   2
    33    28    31   1
    34    31    32   1
    35    32    33  ar
    36    32    37  ar
    37    33    34  ar
    38    34    35  ar
    39    35    36  ar
    40    36    37  ar
    41    10    38   1
    42    12    39   1
    43    13    40   1
    44    14    41   1
    45    17    42   1
    46    17    43   1
    47    21    44   1
    48    22    45   1
    49    23    46   1
    50    23    47   1
    51    24    48   1
    52    24    49   1
    53    26    50   1
    54    26    51   1
    55    27    52   1
    56    27    53   1
    57    31    54   1
    58    31    55   1
    59    33    56   1
    60    34    57   1
    61    35    58   1
    62    36    59   1
    63    37    60   1
@<TRIPOS>SUBSTRUCTURE
     1  MOL      2

