@<TRIPOS>MOLECULE
2qbp_ligand_017
    60    63
SMALL
GAST_HUCK
****
This file was generated by PARSER (from files_GN.cpp)

@<TRIPOS>ATOM
      1 S1         44.7685   17.7522    1.7765 S.3         1 MOL      -0.0382
      2 C2         45.9430   17.3239    2.9527 C.2         1 MOL       0.0813
      3 C3         46.3817   16.0333    2.6329 C.2         1 MOL       0.1014
      4 C4         45.7556   15.4749    1.4948 C.2         1 MOL       0.0465
      5 C5         44.8351   16.3121    0.8350 C.2         1 MOL       0.0450
      6 C6         46.2740   18.1077    4.0573 C.2         1 MOL       0.0555
      7 O7         47.5751   18.3452    4.3567 O.co2       1 MOL      -0.5699
      8 O8         45.4122   18.0628    5.1048 O.co2       1 MOL      -0.5699
      9 C9         44.0679   16.0477   -0.3343 C.ar        1 MOL      -0.0166
     10 C10        42.7172   16.4635   -0.4312 C.ar        1 MOL      -0.0362
     11 C11        41.8966   16.1067   -1.5320 C.ar        1 MOL       0.0383
     12 C12        42.4997   15.4207   -2.6062 C.ar        1 MOL      -0.0440
     13 C13        43.8560   15.0540   -2.5641 C.ar        1 MOL      -0.0722
     14 C14        44.6307   15.3638   -1.4338 C.ar        1 MOL      -0.0655
     15 BR19       46.0015   13.6648    1.0857 Br          1 MOL      -0.0668
     16 O20        47.2108   15.2501    3.3892 O.3         1 MOL      -0.3141
     17 C21        46.8695   14.9643    4.7707 C.3         1 MOL       0.1195
     18 C22        45.4510   14.9972    5.1903 C.2         1 MOL       0.0648
     19 O25        44.4912   15.6141    4.4697 O.co2       1 MOL      -0.5663
     20 O26        45.1103   14.4750    6.3910 O.co2       1 MOL      -0.5663
     21 N29        40.5859   16.4619   -1.4449 N.pl3       1 MOL      -0.3201
     22 C30        39.3876   15.8333   -1.9499 C.3         1 MOL       0.0379
     23 C31        38.2335   16.8608   -1.7566 C.3         1 MOL      -0.0135
     24 C32        36.8457   16.2650   -2.1027 C.3         1 MOL       0.0314
     25 N33        36.8180   15.5868   -3.3772 N.am        1 MOL      -0.2365
     26 C34        37.9127   14.7440   -3.7564 C.3         1 MOL       0.0314
     27 C35        39.3151   15.3075   -3.4100 C.3         1 MOL      -0.0135
     28 S46        35.2998   15.2286   -4.0426 S.o2        1 MOL       0.0512
     29 O47        34.1209   15.9113   -3.2184 O.2         1 MOL      -0.1532
     30 O48        34.9990   13.6690   -3.9138 O.2         1 MOL      -0.1532
     31 C49        35.1121   15.7302   -5.7693 C.3         1 MOL       0.1181
     32 C50        35.7909   17.0259   -6.0329 C.ar        1 MOL      -0.0204
     33 C53        35.3755   18.2095   -5.3662 C.ar        1 MOL      -0.0587
     34 C54        36.0282   19.4323   -5.6039 C.ar        1 MOL      -0.0685
     35 C55        37.1068   19.4916   -6.5026 C.ar        1 MOL      -0.0687
     36 C56        37.5287   18.3277   -7.1765 C.ar        1 MOL      -0.0685
     37 C57        36.8766   17.1040   -6.9374 C.ar        1 MOL      -0.0587
     38 H1         42.2985   16.9595    0.3577 H           1 MOL       0.0516
     39 H2         41.9970   15.2350   -3.4693 H           1 MOL       0.0521
     40 H3         44.2849   14.5776   -3.3591 H           1 MOL       0.0585
     41 H4         45.6188   15.0963   -1.4368 H           1 MOL       0.0520
     42 H5         47.4257   15.6485    5.4200 H           1 MOL       0.0780
     43 H6         47.2496   13.9691    4.9671 H           1 MOL       0.0780
     44 H7         40.4041   17.0305   -0.6721 H           1 MOL       0.1756
     45 H8         39.1983   14.9895   -1.2848 H           1 MOL       0.0548
     46 H9         38.4126   17.7329   -2.3984 H           1 MOL       0.0303
     47 H10        38.2031   17.2131   -0.7182 H           1 MOL       0.0303
     48 H11        36.1285   17.0898   -2.0919 H           1 MOL       0.0479
     49 H12        36.5590   15.5546   -1.3215 H           1 MOL       0.0479
     50 H13        37.8920   14.5547   -4.8373 H           1 MOL       0.0479
     51 H14        37.7951   13.7777   -3.2533 H           1 MOL       0.0479
     52 H15        40.0141   14.4840   -3.5477 H           1 MOL       0.0303
     53 H16        39.5798   16.1137   -4.1088 H           1 MOL       0.0303
     54 H17        34.0501   15.8113   -6.0083 H           1 MOL       0.0682
     55 H18        35.5292   14.9357   -6.3908 H           1 MOL       0.0682
     56 H19        34.5925   18.1820   -4.7108 H           1 MOL       0.0557
     57 H20        35.7236   20.2750   -5.1188 H           1 MOL       0.0599
     58 H21        37.5860   20.3784   -6.6705 H           1 MOL       0.0559
     59 H22        38.3113   18.3703   -7.8265 H           1 MOL       0.0599
     60 H23        37.1988   16.2689   -7.4310 H           1 MOL       0.0557
@<TRIPOS>BOND
     1     1     2   1
     2     1     5   1
     3     2     3   2
     4     2     6   1
     5     3     4   1
     6     3    16   1
     7     4     5   2
     8     4    15   1
     9     5     9   1
    10     6     7  ar
    11     6     8  ar
    12     9    10  ar
    13     9    14  ar
    14    10    11  ar
    15    11    12  ar
    16    11    21   1
    17    12    13  ar
    18    13    14  ar
    19    16    17   1
    20    17    18   1
    21    18    19  ar
    22    18    20  ar
    23    21    22   1
    24    22    23   1
    25    22    27   1
    26    23    24   1
    27    24    25   1
    28    25    26   1
    29    25    28  am
    30    26    27   1
    31    28    29   2
    32    28    30   2
    33    28    31   1
    34    31    32   1
    35    32    33  ar
    36    32    37  ar
    37    33    34  ar
    38    34    35  ar
    39    35    36  ar
    40    36    37  ar
    41    10    38   1
    42    12    39   1
    43    13    40   1
    44    14    41   1
    45    17    42   1
    46    17    43   1
    47    21    44   1
    48    22    45   1
    49    23    46   1
    50    23    47   1
    51    24    48   1
    52    24    49   1
    53    26    50   1
    54    26    51   1
    55    27    52   1
    56    27    53   1
    57    31    54   1
    58    31    55   1
    59    33    56   1
    60    34    57   1
    61    35    58   1
    62    36    59   1
    63    37    60   1
@<TRIPOS>SUBSTRUCTURE
     1  MOL      2

