@<TRIPOS>MOLECULE
2qbp_ligand_020
    60    63
SMALL
GAST_HUCK
****
This file was generated by PARSER (from files_GN.cpp)

@<TRIPOS>ATOM
      1 S1         46.3368   14.1469    3.9912 S.3         1 MOL      -0.0382
      2 C2         45.6313   15.7076    4.1061 C.2         1 MOL       0.0813
      3 C3         44.9496   15.9199    2.8961 C.2         1 MOL       0.1014
      4 C4         44.9820   14.8448    1.9956 C.2         1 MOL       0.0465
      5 C5         45.7356   13.7356    2.4275 C.2         1 MOL       0.0450
      6 C6         45.7836   16.5958    5.1813 C.2         1 MOL       0.0555
      7 O7         46.6033   16.2912    6.2109 O.co2       1 MOL      -0.5699
      8 O8         45.1436   17.7899    5.2423 O.co2       1 MOL      -0.5699
      9 C9         45.9914   12.5243    1.7658 C.ar        1 MOL      -0.0166
     10 C10        44.9516   11.7967    1.1274 C.ar        1 MOL      -0.0362
     11 C11        45.1939   10.6243    0.3892 C.ar        1 MOL       0.0383
     12 C12        46.5063   10.1064    0.3527 C.ar        1 MOL      -0.0440
     13 C13        47.5509   10.7798    1.0245 C.ar        1 MOL      -0.0722
     14 C14        47.3032   11.9706    1.7153 C.ar        1 MOL      -0.0655
     15 BR19       44.1565   14.9760    0.3314 Br          1 MOL      -0.0668
     16 O20        44.3014   17.0963    2.6759 O.3         1 MOL      -0.3141
     17 C21        45.0874   18.1986    2.1766 C.3         1 MOL       0.1195
     18 C22        46.4757   18.3174    2.6648 C.2         1 MOL       0.0648
     19 O25        47.3664   17.3495    2.3444 O.co2       1 MOL      -0.5663
     20 O26        46.7066   18.9835    3.8153 O.co2       1 MOL      -0.5663
     21 N29        44.1261   10.0793   -0.2627 N.pl3       1 MOL      -0.3201
     22 C30        44.0831    9.0010   -1.2042 C.3         1 MOL       0.0379
     23 C31        42.5904    8.7428   -1.5705 C.3         1 MOL      -0.0135
     24 C32        42.4372    7.7307   -2.7319 C.3         1 MOL       0.0314
     25 N33        43.2417    8.1563   -3.8489 N.am        1 MOL      -0.2365
     26 C34        44.6589    8.3153   -3.6258 C.3         1 MOL       0.0314
     27 C35        44.9066    9.3319   -2.4834 C.3         1 MOL      -0.0135
     28 S46        42.5665    8.4799   -5.3654 S.o2        1 MOL       0.0512
     29 O47        43.2049    9.8318   -5.9311 O.2         1 MOL      -0.1532
     30 O48        41.0205    8.8721   -5.2527 O.2         1 MOL      -0.1532
     31 C49        42.8127    7.1274   -6.5397 C.3         1 MOL       0.1181
     32 C50        41.6356    6.2386   -6.7528 C.ar        1 MOL      -0.0204
     33 C53        41.4165    5.6141   -8.0096 C.ar        1 MOL      -0.0587
     34 C54        40.3633    4.7068   -8.1910 C.ar        1 MOL      -0.0685
     35 C55        39.4734    4.4356   -7.1331 C.ar        1 MOL      -0.0687
     36 C56        39.6624    5.0536   -5.8893 C.ar        1 MOL      -0.0685
     37 C57        40.7494    5.9265   -5.6941 C.ar        1 MOL      -0.0587
     38 H1         43.9942   12.1531    1.1962 H           1 MOL       0.0516
     39 H2         46.7184    9.2410   -0.1441 H           1 MOL       0.0521
     40 H3         48.5026   10.3733    1.0035 H           1 MOL       0.0585
     41 H4         48.0916   12.4508    2.1676 H           1 MOL       0.0520
     42 H5         44.5561   19.1083    2.4720 H           1 MOL       0.0780
     43 H6         45.1075   18.1797    1.0833 H           1 MOL       0.0780
     44 H7         43.2864   10.5139   -0.0832 H           1 MOL       0.1756
     45 H8         44.4836    8.0940   -0.7391 H           1 MOL       0.0548
     46 H9         42.1218    9.6807   -1.8743 H           1 MOL       0.0303
     47 H10        42.0652    8.3728   -0.6905 H           1 MOL       0.0303
     48 H11        41.3724    7.6557   -2.9748 H           1 MOL       0.0479
     49 H12        42.7607    6.7373   -2.4012 H           1 MOL       0.0479
     50 H13        45.1740    8.6470   -4.5278 H           1 MOL       0.0479
     51 H14        45.0790    7.3441   -3.3569 H           1 MOL       0.0479
     52 H15        45.9812    9.3382   -2.2649 H           1 MOL       0.0303
     53 H16        44.6446   10.3289   -2.8516 H           1 MOL       0.0303
     54 H17        43.6456    6.5183   -6.1758 H           1 MOL       0.0682
     55 H18        43.1342    7.5720   -7.4873 H           1 MOL       0.0682
     56 H19        42.0461    5.7977   -8.7968 H           1 MOL       0.0557
     57 H20        40.2330    4.2398   -9.0926 H           1 MOL       0.0599
     58 H21        38.7027    3.7782   -7.2741 H           1 MOL       0.0559
     59 H22        39.0229    4.8534   -5.1176 H           1 MOL       0.0599
     60 H23        40.9028    6.3178   -4.7696 H           1 MOL       0.0557
@<TRIPOS>BOND
     1     1     2   1
     2     1     5   1
     3     2     3   2
     4     2     6   1
     5     3     4   1
     6     3    16   1
     7     4     5   2
     8     4    15   1
     9     5     9   1
    10     6     7  ar
    11     6     8  ar
    12     9    10  ar
    13     9    14  ar
    14    10    11  ar
    15    11    12  ar
    16    11    21   1
    17    12    13  ar
    18    13    14  ar
    19    16    17   1
    20    17    18   1
    21    18    19  ar
    22    18    20  ar
    23    21    22   1
    24    22    23   1
    25    22    27   1
    26    23    24   1
    27    24    25   1
    28    25    26   1
    29    25    28  am
    30    26    27   1
    31    28    29   2
    32    28    30   2
    33    28    31   1
    34    31    32   1
    35    32    33  ar
    36    32    37  ar
    37    33    34  ar
    38    34    35  ar
    39    35    36  ar
    40    36    37  ar
    41    10    38   1
    42    12    39   1
    43    13    40   1
    44    14    41   1
    45    17    42   1
    46    17    43   1
    47    21    44   1
    48    22    45   1
    49    23    46   1
    50    23    47   1
    51    24    48   1
    52    24    49   1
    53    26    50   1
    54    26    51   1
    55    27    52   1
    56    27    53   1
    57    31    54   1
    58    31    55   1
    59    33    56   1
    60    34    57   1
    61    35    58   1
    62    36    59   1
    63    37    60   1
@<TRIPOS>SUBSTRUCTURE
     1  MOL      2

