@<TRIPOS>MOLECULE
2qbp_ligand_031
    60    63
SMALL
GAST_HUCK
****
This file was generated by PARSER (from files_GN.cpp)

@<TRIPOS>ATOM
      1 S1         47.1350   11.9953    2.9165 S.3         1 MOL      -0.0382
      2 C2         46.2928   13.3492    3.5502 C.2         1 MOL       0.0813
      3 C3         45.4055   13.7871    2.5606 C.2         1 MOL       0.1014
      4 C4         45.4336   13.0182    1.3816 C.2         1 MOL       0.0465
      5 C5         46.3325   11.9313    1.3935 C.2         1 MOL       0.0450
      6 C6         46.4961   13.8615    4.8330 C.2         1 MOL       0.0555
      7 O7         47.5888   14.6385    5.0511 O.co2       1 MOL      -0.5699
      8 O8         45.5042   13.8613    5.7646 O.co2       1 MOL      -0.5699
      9 C9         46.5769   10.9300    0.4107 C.ar        1 MOL      -0.0166
     10 C10        45.5333   10.0899   -0.0529 C.ar        1 MOL      -0.0362
     11 C11        45.7654    9.0612   -0.9992 C.ar        1 MOL       0.0383
     12 C12        47.0889    8.8474   -1.4382 C.ar        1 MOL      -0.0440
     13 C13        48.1475    9.6446   -0.9632 C.ar        1 MOL      -0.0722
     14 C14        47.8898   10.6823   -0.0520 C.ar        1 MOL      -0.0655
     15 BR19       44.3874   13.4912   -0.0860 Br          1 MOL      -0.0668
     16 O20        44.6146   14.8945    2.7262 O.3         1 MOL      -0.3141
     17 C21        45.3679   16.1271    2.7991 C.3         1 MOL       0.1195
     18 C22        44.4706   17.2257    3.1955 C.2         1 MOL       0.0648
     19 O25        44.2436   17.4753    4.5084 O.co2       1 MOL      -0.5663
     20 O26        44.0314   18.1235    2.2794 O.co2       1 MOL      -0.5663
     21 N29        44.7964    8.2570   -1.5208 N.pl3       1 MOL      -0.3201
     22 C30        43.3806    8.5128   -1.6164 C.3         1 MOL       0.0379
     23 C31        43.0459    9.9074   -2.2412 C.3         1 MOL      -0.0135
     24 C32        43.3797    9.9716   -3.7535 C.3         1 MOL       0.0314
     25 N33        42.8389    8.8499   -4.4820 N.am        1 MOL      -0.2365
     26 C34        43.0436    7.5087   -3.9763 C.3         1 MOL       0.0314
     27 C35        42.7020    7.4060   -2.4679 C.3         1 MOL      -0.0135
     28 S46        42.3611    9.0550   -6.0916 S.o2        1 MOL       0.0512
     29 O47        42.6739    7.7522   -6.9549 O.2         1 MOL      -0.1532
     30 O48        43.2627   10.1666   -6.7974 O.2         1 MOL      -0.1532
     31 C49        40.6169    9.4820   -6.2965 C.3         1 MOL       0.1181
     32 C50        40.0955   10.1075   -5.0562 C.ar        1 MOL      -0.0204
     33 C53        39.7509    9.3037   -3.9447 C.ar        1 MOL      -0.0587
     34 C54        39.3477    9.8894   -2.7338 C.ar        1 MOL      -0.0685
     35 C55        39.2562   11.2903   -2.6226 C.ar        1 MOL      -0.0687
     36 C56        39.5829   12.1010   -3.7287 C.ar        1 MOL      -0.0685
     37 C57        40.0099   11.5131   -4.9324 C.ar        1 MOL      -0.0587
     38 H1         44.5935   10.2095    0.3346 H           1 MOL       0.0516
     39 H2         47.3000    8.1018   -2.1057 H           1 MOL       0.0521
     40 H3         49.0985    9.4846   -1.2933 H           1 MOL       0.0585
     41 H4         48.6719   11.2600    0.2674 H           1 MOL       0.0520
     42 H5         45.8147   16.3541    1.8179 H           1 MOL       0.0780
     43 H6         46.1628   16.0784    3.5471 H           1 MOL       0.0780
     44 H7         45.0931    7.3924   -1.8641 H           1 MOL       0.1756
     45 H8         42.9545    8.4647   -0.6104 H           1 MOL       0.0548
     46 H9         43.5949   10.7052   -1.7292 H           1 MOL       0.0303
     47 H10        41.9752   10.1061   -2.1032 H           1 MOL       0.0303
     48 H11        44.4600    9.9830   -3.8942 H           1 MOL       0.0479
     49 H12        42.9824   10.9130   -4.1343 H           1 MOL       0.0479
     50 H13        44.0919    7.2301   -4.1402 H           1 MOL       0.0479
     51 H14        42.4203    6.7818   -4.5071 H           1 MOL       0.0479
     52 H15        41.6211    7.4856   -2.3562 H           1 MOL       0.0303
     53 H16        42.9970    6.4234   -2.1002 H           1 MOL       0.0303
     54 H17        40.0690    8.5671   -6.5305 H           1 MOL       0.0682
     55 H18        40.5034   10.1630   -7.1493 H           1 MOL       0.0682
     56 H19        39.8280    8.2831   -3.9958 H           1 MOL       0.0557
     57 H20        39.1103    9.2973   -1.9323 H           1 MOL       0.0599
     58 H21        38.9631   11.7163   -1.7410 H           1 MOL       0.0559
     59 H22        39.5282   13.1188   -3.6429 H           1 MOL       0.0599
     60 H23        40.2590   12.1178   -5.7183 H           1 MOL       0.0557
@<TRIPOS>BOND
     1     1     2   1
     2     1     5   1
     3     2     3   2
     4     2     6   1
     5     3     4   1
     6     3    16   1
     7     4     5   2
     8     4    15   1
     9     5     9   1
    10     6     7  ar
    11     6     8  ar
    12     9    10  ar
    13     9    14  ar
    14    10    11  ar
    15    11    12  ar
    16    11    21   1
    17    12    13  ar
    18    13    14  ar
    19    16    17   1
    20    17    18   1
    21    18    19  ar
    22    18    20  ar
    23    21    22   1
    24    22    23   1
    25    22    27   1
    26    23    24   1
    27    24    25   1
    28    25    26   1
    29    25    28  am
    30    26    27   1
    31    28    29   2
    32    28    30   2
    33    28    31   1
    34    31    32   1
    35    32    33  ar
    36    32    37  ar
    37    33    34  ar
    38    34    35  ar
    39    35    36  ar
    40    36    37  ar
    41    10    38   1
    42    12    39   1
    43    13    40   1
    44    14    41   1
    45    17    42   1
    46    17    43   1
    47    21    44   1
    48    22    45   1
    49    23    46   1
    50    23    47   1
    51    24    48   1
    52    24    49   1
    53    26    50   1
    54    26    51   1
    55    27    52   1
    56    27    53   1
    57    31    54   1
    58    31    55   1
    59    33    56   1
    60    34    57   1
    61    35    58   1
    62    36    59   1
    63    37    60   1
@<TRIPOS>SUBSTRUCTURE
     1  MOL      2

