@<TRIPOS>MOLECULE
2qbp_ligand_065
    60    63
SMALL
GAST_HUCK
****
This file was generated by PARSER (from files_GN.cpp)

@<TRIPOS>ATOM
      1 S1         46.0119   11.6188    3.1731 S.3         1 MOL      -0.0382
      2 C2         46.0016   13.3084    3.4895 C.2         1 MOL       0.0813
      3 C3         45.4672   13.9328    2.3569 C.2         1 MOL       0.1014
      4 C4         45.1382   13.0448    1.3086 C.2         1 MOL       0.0465
      5 C5         45.3671   11.6818    1.5806 C.2         1 MOL       0.0450
      6 C6         46.5004   13.9318    4.6289 C.2         1 MOL       0.0555
      7 O7         45.7374   13.9786    5.7399 O.co2       1 MOL      -0.5699
      8 O8         47.4943   14.8465    4.5026 O.co2       1 MOL      -0.5699
      9 C9         45.1800   10.5571    0.7317 C.ar        1 MOL      -0.0166
     10 C10        46.1282    9.4983    0.6993 C.ar        1 MOL      -0.0362
     11 C11        46.0308    8.4495   -0.2506 C.ar        1 MOL       0.0383
     12 C12        44.9428    8.4523   -1.1452 C.ar        1 MOL      -0.0440
     13 C13        43.9330    9.4190   -1.0477 C.ar        1 MOL      -0.0722
     14 C14        44.0589   10.4641   -0.1234 C.ar        1 MOL      -0.0655
     15 BR19       44.6068   13.7391   -0.3385 Br          1 MOL      -0.0668
     16 O20        45.3059   15.2920    2.3029 O.3         1 MOL      -0.3141
     17 C21        43.9694   15.7308    2.6319 C.3         1 MOL       0.1195
     18 C22        44.0514   17.0875    3.1881 C.2         1 MOL       0.0648
     19 O25        44.0839   18.1567    2.3723 O.co2       1 MOL      -0.5663
     20 O26        43.9560   17.2793    4.5316 O.co2       1 MOL      -0.5663
     21 N29        46.8822    7.3933   -0.3496 N.pl3       1 MOL      -0.3201
     22 C30        47.8098    6.8815    0.6097 C.3         1 MOL       0.0379
     23 C31        48.1931    5.4418    0.1625 C.3         1 MOL      -0.0135
     24 C32        49.2197    4.7884    1.1173 C.3         1 MOL       0.0314
     25 N33        50.3513    5.6387    1.3756 N.am        1 MOL      -0.2365
     26 C34        50.0983    7.0119    1.7447 C.3         1 MOL       0.0314
     27 C35        49.1137    7.7113    0.7713 C.3         1 MOL      -0.0135
     28 S46        51.7558    4.9053    1.9827 S.o2        1 MOL       0.0512
     29 O47        51.9303    3.4504    1.3695 O.2         1 MOL      -0.1532
     30 O48        51.6124    4.6819    3.5534 O.2         1 MOL      -0.1532
     31 C49        53.3326    5.7210    1.6419 C.3         1 MOL       0.1181
     32 C50        53.7221    5.5673    0.2165 C.ar        1 MOL      -0.0204
     33 C53        54.5832    4.5177   -0.1842 C.ar        1 MOL      -0.0587
     34 C54        54.9641    4.3766   -1.5309 C.ar        1 MOL      -0.0685
     35 C55        54.4963    5.2858   -2.4944 C.ar        1 MOL      -0.0687
     36 C56        53.6306    6.3265   -2.1139 C.ar        1 MOL      -0.0685
     37 C57        53.2431    6.4648   -0.7694 C.ar        1 MOL      -0.0587
     38 H1         46.9038    9.5044    1.3555 H           1 MOL       0.0516
     39 H2         44.8418    7.7131   -1.8473 H           1 MOL       0.0521
     40 H3         43.1177    9.3738   -1.6642 H           1 MOL       0.0585
     41 H4         43.3093   11.1573   -0.0716 H           1 MOL       0.0520
     42 H5         43.4802   15.0834    3.3674 H           1 MOL       0.0780
     43 H6         43.3555   15.7421    1.7290 H           1 MOL       0.0780
     44 H7         46.7140    6.8161   -1.1115 H           1 MOL       0.1756
     45 H8         47.3070    6.8073    1.5791 H           1 MOL       0.0548
     46 H9         48.6181    5.4686   -0.8448 H           1 MOL       0.0303
     47 H10        47.3001    4.8093    0.1263 H           1 MOL       0.0303
     48 H11        49.5184    3.8411    0.6603 H           1 MOL       0.0479
     49 H12        48.7275    4.5554    2.0648 H           1 MOL       0.0479
     50 H13        51.0192    7.6030    1.7642 H           1 MOL       0.0479
     51 H14        49.6753    7.0304    2.7533 H           1 MOL       0.0479
     52 H15        48.8992    8.7052    1.1591 H           1 MOL       0.0303
     53 H16        49.5916    7.8370   -0.2004 H           1 MOL       0.0303
     54 H17        54.0770    5.2644    2.2984 H           1 MOL       0.0682
     55 H18        53.2667    6.7727    1.9134 H           1 MOL       0.0682
     56 H19        54.9308    3.8453    0.5023 H           1 MOL       0.0557
     57 H20        55.5818    3.6124   -1.8083 H           1 MOL       0.0599
     58 H21        54.7787    5.1877   -3.4714 H           1 MOL       0.0559
     59 H22        53.2845    6.9851   -2.8160 H           1 MOL       0.0599
     60 H23        52.6158    7.2296   -0.5112 H           1 MOL       0.0557
@<TRIPOS>BOND
     1     1     2   1
     2     1     5   1
     3     2     3   2
     4     2     6   1
     5     3     4   1
     6     3    16   1
     7     4     5   2
     8     4    15   1
     9     5     9   1
    10     6     7  ar
    11     6     8  ar
    12     9    10  ar
    13     9    14  ar
    14    10    11  ar
    15    11    12  ar
    16    11    21   1
    17    12    13  ar
    18    13    14  ar
    19    16    17   1
    20    17    18   1
    21    18    19  ar
    22    18    20  ar
    23    21    22   1
    24    22    23   1
    25    22    27   1
    26    23    24   1
    27    24    25   1
    28    25    26   1
    29    25    28  am
    30    26    27   1
    31    28    29   2
    32    28    30   2
    33    28    31   1
    34    31    32   1
    35    32    33  ar
    36    32    37  ar
    37    33    34  ar
    38    34    35  ar
    39    35    36  ar
    40    36    37  ar
    41    10    38   1
    42    12    39   1
    43    13    40   1
    44    14    41   1
    45    17    42   1
    46    17    43   1
    47    21    44   1
    48    22    45   1
    49    23    46   1
    50    23    47   1
    51    24    48   1
    52    24    49   1
    53    26    50   1
    54    26    51   1
    55    27    52   1
    56    27    53   1
    57    31    54   1
    58    31    55   1
    59    33    56   1
    60    34    57   1
    61    35    58   1
    62    36    59   1
    63    37    60   1
@<TRIPOS>SUBSTRUCTURE
     1  MOL      2

