@<TRIPOS>MOLECULE
2qbp_ligand_047
    60    63
SMALL
GAST_HUCK
****
This file was generated by PARSER (from files_GN.cpp)

@<TRIPOS>ATOM
      1 S1         44.9094   14.6363   -0.1125 S.3         1 MOL      -0.0382
      2 C2         44.5764   15.4093    1.3859 C.2         1 MOL       0.0813
      3 C3         45.0147   14.5658    2.4125 C.2         1 MOL       0.1014
      4 C4         45.5200   13.3376    1.9584 C.2         1 MOL       0.0465
      5 C5         45.5722   13.2076    0.5648 C.2         1 MOL       0.0450
      6 C6         43.9967   16.6822    1.4584 C.2         1 MOL       0.0555
      7 O7         42.8609   16.8784    2.1640 O.co2       1 MOL      -0.5699
      8 O8         44.5526   17.7467    0.8361 O.co2       1 MOL      -0.5699
      9 C9         46.0728   12.1816   -0.2470 C.ar        1 MOL      -0.0166
     10 C10        45.1884   11.2423   -0.8356 C.ar        1 MOL      -0.0362
     11 C11        45.5837   10.4035   -1.8975 C.ar        1 MOL       0.0383
     12 C12        46.9282   10.5162   -2.3647 C.ar        1 MOL      -0.0440
     13 C13        47.8296   11.4136   -1.7553 C.ar        1 MOL      -0.0722
     14 C14        47.4256   12.2188   -0.6892 C.ar        1 MOL      -0.0655
     15 BR19       46.1134   12.0063    3.1024 Br          1 MOL      -0.0668
     16 O20        44.8844   14.9331    3.7208 O.3         1 MOL      -0.3141
     17 C21        45.9813   15.7205    4.2456 C.3         1 MOL       0.1195
     18 C22        45.4962   16.7942    5.1276 C.2         1 MOL       0.0648
     19 O25        46.3696   17.5632    5.8202 O.co2       1 MOL      -0.5663
     20 O26        44.1775   17.0711    5.2827 O.co2       1 MOL      -0.5663
     21 N29        44.8040    9.5107   -2.5758 N.pl3       1 MOL      -0.3201
     22 C30        43.9036    8.5104   -2.0410 C.3         1 MOL       0.0379
     23 C31        42.5237    8.9726   -1.4925 C.3         1 MOL      -0.0135
     24 C32        41.5996    9.5129   -2.6034 C.3         1 MOL       0.0314
     25 N33        41.4451    8.4987   -3.6073 N.am        1 MOL      -0.2365
     26 C34        42.6384    7.9837   -4.2542 C.3         1 MOL       0.0314
     27 C35        43.6379    7.4637   -3.1745 C.3         1 MOL      -0.0135
     28 S46        39.8870    8.0295   -4.0745 S.o2        1 MOL       0.0512
     29 O47        39.1558    9.2707   -4.7481 O.2         1 MOL      -0.1532
     30 O48        39.0943    7.6565   -2.7428 O.2         1 MOL      -0.1532
     31 C49        39.7286    6.5627   -5.1210 C.3         1 MOL       0.1181
     32 C50        38.3182    6.1324   -5.2796 C.ar        1 MOL      -0.0204
     33 C53        37.8009    5.0665   -4.5036 C.ar        1 MOL      -0.0587
     34 C54        36.4682    4.6378   -4.6612 C.ar        1 MOL      -0.0685
     35 C55        35.6413    5.2777   -5.6078 C.ar        1 MOL      -0.0687
     36 C56        36.1466    6.3282   -6.3910 C.ar        1 MOL      -0.0685
     37 C57        37.4761    6.7476   -6.2299 C.ar        1 MOL      -0.0587
     38 H1         44.2196   11.2439   -0.5327 H           1 MOL       0.0516
     39 H2         47.2757    9.9332   -3.1231 H           1 MOL       0.0521
     40 H3         48.8155   11.4423   -2.0699 H           1 MOL       0.0585
     41 H4         48.0621   12.9125   -0.2986 H           1 MOL       0.0520
     42 H5         46.5857   16.2079    3.4658 H           1 MOL       0.0780
     43 H6         46.6379   15.0623    4.8269 H           1 MOL       0.0780
     44 H7         45.1072    9.3106   -3.4789 H           1 MOL       0.1756
     45 H8         44.4209    7.9882   -1.2247 H           1 MOL       0.0548
     46 H9         42.6034    9.7131   -0.7133 H           1 MOL       0.0303
     47 H10        42.0199    8.1114   -1.0339 H           1 MOL       0.0303
     48 H11        42.0235   10.4279   -3.0425 H           1 MOL       0.0479
     49 H12        40.6347    9.8026   -2.1647 H           1 MOL       0.0479
     50 H13        43.1055    8.7980   -4.8272 H           1 MOL       0.0479
     51 H14        42.4325    7.1653   -4.9526 H           1 MOL       0.0479
     52 H15        43.2136    6.5479   -2.7455 H           1 MOL       0.0303
     53 H16        44.5703    7.1914   -3.6740 H           1 MOL       0.0303
     54 H17        40.3103    5.7706   -4.6488 H           1 MOL       0.0682
     55 H18        40.1695    6.7673   -6.1030 H           1 MOL       0.0682
     56 H19        38.3814    4.6009   -3.8006 H           1 MOL       0.0557
     57 H20        36.1089    3.8653   -4.0964 H           1 MOL       0.0599
     58 H21        34.6770    4.9537   -5.7338 H           1 MOL       0.0559
     59 H22        35.5483    6.7835   -7.0801 H           1 MOL       0.0599
     60 H23        37.8355    7.5145   -6.8201 H           1 MOL       0.0557
@<TRIPOS>BOND
     1     1     2   1
     2     1     5   1
     3     2     3   2
     4     2     6   1
     5     3     4   1
     6     3    16   1
     7     4     5   2
     8     4    15   1
     9     5     9   1
    10     6     7  ar
    11     6     8  ar
    12     9    10  ar
    13     9    14  ar
    14    10    11  ar
    15    11    12  ar
    16    11    21   1
    17    12    13  ar
    18    13    14  ar
    19    16    17   1
    20    17    18   1
    21    18    19  ar
    22    18    20  ar
    23    21    22   1
    24    22    23   1
    25    22    27   1
    26    23    24   1
    27    24    25   1
    28    25    26   1
    29    25    28  am
    30    26    27   1
    31    28    29   2
    32    28    30   2
    33    28    31   1
    34    31    32   1
    35    32    33  ar
    36    32    37  ar
    37    33    34  ar
    38    34    35  ar
    39    35    36  ar
    40    36    37  ar
    41    10    38   1
    42    12    39   1
    43    13    40   1
    44    14    41   1
    45    17    42   1
    46    17    43   1
    47    21    44   1
    48    22    45   1
    49    23    46   1
    50    23    47   1
    51    24    48   1
    52    24    49   1
    53    26    50   1
    54    26    51   1
    55    27    52   1
    56    27    53   1
    57    31    54   1
    58    31    55   1
    59    33    56   1
    60    34    57   1
    61    35    58   1
    62    36    59   1
    63    37    60   1
@<TRIPOS>SUBSTRUCTURE
     1  MOL      2

