@<TRIPOS>MOLECULE
2qbp_ligand_043
    60    63
SMALL
GAST_HUCK
****
This file was generated by PARSER (from files_GN.cpp)

@<TRIPOS>ATOM
      1 S1         47.0797   14.1807    4.1454 S.3         1 MOL      -0.0382
      2 C2         45.6894   15.1830    4.2745 C.2         1 MOL       0.0813
      3 C3         44.8123   14.8011    3.2440 C.2         1 MOL       0.1014
      4 C4         45.2635   13.7104    2.4673 C.2         1 MOL       0.0465
      5 C5         46.5350   13.2405    2.8137 C.2         1 MOL       0.0450
      6 C6         45.5174   16.1774    5.2526 C.2         1 MOL       0.0555
      7 O7         46.5839   16.6677    5.9310 O.co2       1 MOL      -0.5699
      8 O8         44.2942   16.6551    5.5768 O.co2       1 MOL      -0.5699
      9 C9         47.2516   12.1682    2.2644 C.ar        1 MOL      -0.0166
     10 C10        47.0376   10.8548    2.7534 C.ar        1 MOL      -0.0362
     11 C11        47.8570    9.7822    2.3304 C.ar        1 MOL       0.0383
     12 C12        48.8452   10.0336    1.3474 C.ar        1 MOL      -0.0440
     13 C13        49.0199   11.3236    0.8163 C.ar        1 MOL      -0.0722
     14 C14        48.2360   12.3924    1.2882 C.ar        1 MOL      -0.0655
     15 BR19       44.2610   12.9345    1.1026 Br          1 MOL      -0.0668
     16 O20        43.6088   15.4287    3.0273 O.3         1 MOL      -0.3141
     17 C21        43.6294   16.4151    1.9674 C.3         1 MOL       0.1195
     18 C22        44.4830   17.5755    2.2601 C.2         1 MOL       0.0648
     19 O25        45.5093   17.9099    1.4408 O.co2       1 MOL      -0.5663
     20 O26        44.3210   18.2507    3.4255 O.co2       1 MOL      -0.5663
     21 N29        47.6735    8.5882    2.9484 N.pl3       1 MOL      -0.3201
     22 C30        48.5269    7.4341    2.9034 C.3         1 MOL       0.0379
     23 C31        48.3410    6.6322    4.2156 C.3         1 MOL      -0.0135
     24 C32        49.2313    5.3585    4.2288 C.3         1 MOL       0.0314
     25 N33        49.0687    4.5650    3.0387 N.am        1 MOL      -0.2365
     26 C34        49.0809    5.2111    1.7490 C.3         1 MOL       0.0314
     27 C35        48.2264    6.5050    1.6951 C.3         1 MOL      -0.0135
     28 S46        49.4206    2.9047    3.1499 S.o2        1 MOL       0.0512
     29 O47        50.6903    2.6517    4.0658 O.2         1 MOL      -0.1532
     30 O48        49.9872    2.4023    1.7412 O.2         1 MOL      -0.1532
     31 C49        47.9927    1.8685    3.5747 C.3         1 MOL       0.1181
     32 C50        47.9468    1.1997    4.9085 C.ar        1 MOL      -0.0204
     33 C53        48.5647    1.7211    6.0667 C.ar        1 MOL      -0.0587
     34 C54        48.4735    1.0446    7.3116 C.ar        1 MOL      -0.0685
     35 C55        47.7454   -0.1461    7.4024 C.ar        1 MOL      -0.0687
     36 C56        47.0880   -0.6599    6.2709 C.ar        1 MOL      -0.0685
     37 C57        47.1767    0.0155    5.0425 C.ar        1 MOL      -0.0587
     38 H1         46.3140   10.6941    3.4566 H           1 MOL       0.0516
     39 H2         49.4486    9.2849    1.0079 H           1 MOL       0.0521
     40 H3         49.7377   11.4926    0.1107 H           1 MOL       0.0585
     41 H4         48.4039   13.3343    0.9217 H           1 MOL       0.0520
     42 H5         42.6094   16.7895    1.8549 H           1 MOL       0.0780
     43 H6         43.9250   15.9727    1.0103 H           1 MOL       0.0780
     44 H7         46.9633    8.5593    3.6157 H           1 MOL       0.1756
     45 H8         49.5729    7.7573    2.8677 H           1 MOL       0.0548
     46 H9         47.2922    6.3318    4.3216 H           1 MOL       0.0303
     47 H10        48.6021    7.2558    5.0784 H           1 MOL       0.0303
     48 H11        48.9661    4.7932    5.1213 H           1 MOL       0.0479
     49 H12        50.2816    5.6537    4.3169 H           1 MOL       0.0479
     50 H13        48.7007    4.5405    0.9710 H           1 MOL       0.0479
     51 H14        50.1173    5.4605    1.4938 H           1 MOL       0.0479
     52 H15        48.4262    7.0359    0.7632 H           1 MOL       0.0303
     53 H16        47.1645    6.2369    1.7035 H           1 MOL       0.0303
     54 H17        47.9413    1.1013    2.7974 H           1 MOL       0.0682
     55 H18        47.0946    2.4842    3.4748 H           1 MOL       0.0682
     56 H19        49.0863    2.5893    6.0392 H           1 MOL       0.0557
     57 H20        48.9378    1.4309    8.1337 H           1 MOL       0.0599
     58 H21        47.6792   -0.6445    8.2932 H           1 MOL       0.0559
     59 H22        46.5439   -1.5215    6.3448 H           1 MOL       0.0599
     60 H23        46.6698   -0.3680    4.2398 H           1 MOL       0.0557
@<TRIPOS>BOND
     1     1     2   1
     2     1     5   1
     3     2     3   2
     4     2     6   1
     5     3     4   1
     6     3    16   1
     7     4     5   2
     8     4    15   1
     9     5     9   1
    10     6     7  ar
    11     6     8  ar
    12     9    10  ar
    13     9    14  ar
    14    10    11  ar
    15    11    12  ar
    16    11    21   1
    17    12    13  ar
    18    13    14  ar
    19    16    17   1
    20    17    18   1
    21    18    19  ar
    22    18    20  ar
    23    21    22   1
    24    22    23   1
    25    22    27   1
    26    23    24   1
    27    24    25   1
    28    25    26   1
    29    25    28  am
    30    26    27   1
    31    28    29   2
    32    28    30   2
    33    28    31   1
    34    31    32   1
    35    32    33  ar
    36    32    37  ar
    37    33    34  ar
    38    34    35  ar
    39    35    36  ar
    40    36    37  ar
    41    10    38   1
    42    12    39   1
    43    13    40   1
    44    14    41   1
    45    17    42   1
    46    17    43   1
    47    21    44   1
    48    22    45   1
    49    23    46   1
    50    23    47   1
    51    24    48   1
    52    24    49   1
    53    26    50   1
    54    26    51   1
    55    27    52   1
    56    27    53   1
    57    31    54   1
    58    31    55   1
    59    33    56   1
    60    34    57   1
    61    35    58   1
    62    36    59   1
    63    37    60   1
@<TRIPOS>SUBSTRUCTURE
     1  MOL      2

