@<TRIPOS>MOLECULE
2qbp_ligand_002
    60    63
SMALL
GAST_HUCK
****
This file was generated by PARSER (from files_GN.cpp)

@<TRIPOS>ATOM
      1 S1         47.0108   13.6457    3.9603 S.3         1 MOL      -0.0382
      2 C2         46.9877   15.3629    3.8260 C.2         1 MOL       0.0813
      3 C3         46.2479   15.6731    2.6821 C.2         1 MOL       0.1014
      4 C4         45.7464   14.5420    1.9908 C.2         1 MOL       0.0465
      5 C5         46.0615   13.2838    2.5652 C.2         1 MOL       0.0450
      6 C6         47.5712   16.2502    4.7300 C.2         1 MOL       0.0555
      7 O7         46.8661   16.6281    5.8270 O.co2       1 MOL      -0.5699
      8 O8         48.9172   16.4058    4.7615 O.co2       1 MOL      -0.5699
      9 C9         45.7628   11.9618    2.0961 C.ar        1 MOL      -0.0166
     10 C10        46.7122   10.9004    2.2150 C.ar        1 MOL      -0.0362
     11 C11        46.5465    9.6755    1.5319 C.ar        1 MOL       0.0383
     12 C12        45.3963    9.4902    0.7291 C.ar        1 MOL      -0.0440
     13 C13        44.3674   10.4483    0.7428 C.ar        1 MOL      -0.0722
     14 C14        44.5373   11.6470    1.4516 C.ar        1 MOL      -0.0655
     15 BR19       44.8068   14.8085    0.3818 Br          1 MOL      -0.0668
     16 O20        45.9387   16.9311    2.2254 O.3         1 MOL      -0.3141
     17 C21        45.1760   17.8247    3.0771 C.3         1 MOL       0.1195
     18 C22        44.3577   17.2279    4.1625 C.2         1 MOL       0.0648
     19 O25        44.4573   17.7542    5.4038 O.co2       1 MOL      -0.5663
     20 O26        43.9494   15.9380    4.1365 O.co2       1 MOL      -0.5663
     21 N29        47.4882    8.6964    1.5076 N.pl3       1 MOL      -0.3201
     22 C30        48.0108    8.0027    2.6432 C.3         1 MOL       0.0379
     23 C31        48.4948    6.6188    2.1473 C.3         1 MOL      -0.0135
     24 C32        49.1126    5.7495    3.2695 C.3         1 MOL       0.0314
     25 N33        50.0993    6.4574    4.0405 N.am        1 MOL      -0.2365
     26 C34        49.7734    7.7801    4.5168 C.3         1 MOL       0.0314
     27 C35        49.1929    8.6937    3.4055 C.3         1 MOL      -0.0135
     28 S46        51.2524    5.5285    4.8688 S.o2        1 MOL       0.0512
     29 O47        52.4527    6.4489    5.3655 O.2         1 MOL      -0.1532
     30 O48        51.9380    4.5366    3.8284 O.2         1 MOL      -0.1532
     31 C49        50.6210    4.6084    6.2946 C.3         1 MOL       0.1181
     32 C50        51.3444    3.3381    6.5761 C.ar        1 MOL      -0.0204
     33 C53        52.7514    3.3250    6.7649 C.ar        1 MOL      -0.0587
     34 C54        53.4267    2.1251    7.0672 C.ar        1 MOL      -0.0685
     35 C55        52.7070    0.9280    7.2298 C.ar        1 MOL      -0.0687
     36 C56        51.3118    0.9255    7.0512 C.ar        1 MOL      -0.0685
     37 C57        50.6421    2.1145    6.7096 C.ar        1 MOL      -0.0587
     38 H1         47.5883   11.0731    2.6960 H           1 MOL       0.0516
     39 H2         45.2658    8.6137    0.2052 H           1 MOL       0.0521
     40 H3         43.4889   10.2688    0.2408 H           1 MOL       0.0585
     41 H4         43.7612   12.3217    1.4634 H           1 MOL       0.0520
     42 H5         44.4864   18.3724    2.4265 H           1 MOL       0.0780
     43 H6         45.8509   18.5677    3.4931 H           1 MOL       0.0780
     44 H7         47.4987    8.1704    0.6711 H           1 MOL       0.1756
     45 H8         47.1892    7.8310    3.3619 H           1 MOL       0.0548
     46 H9         49.2614    6.7707    1.3709 H           1 MOL       0.0303
     47 H10        47.6631    6.0743    1.6891 H           1 MOL       0.0303
     48 H11        49.5444    4.8629    2.7941 H           1 MOL       0.0479
     49 H12        48.3136    5.4075    3.9427 H           1 MOL       0.0479
     50 H13        50.6508    8.2807    4.9278 H           1 MOL       0.0479
     51 H14        49.0420    7.6786    5.3207 H           1 MOL       0.0479
     52 H15        48.8598    9.6135    3.8737 H           1 MOL       0.0303
     53 H16        49.9794    8.9418    2.6783 H           1 MOL       0.0303
     54 H17        49.5630    4.4138    6.1082 H           1 MOL       0.0682
     55 H18        50.6776    5.2509    7.1699 H           1 MOL       0.0682
     56 H19        53.2971    4.1861    6.6749 H           1 MOL       0.0557
     57 H20        54.4427    2.1308    7.1975 H           1 MOL       0.0599
     58 H21        53.1968    0.0692    7.4793 H           1 MOL       0.0559
     59 H22        50.7888    0.0601    7.1682 H           1 MOL       0.0599
     60 H23        49.6247    2.0886    6.5945 H           1 MOL       0.0557
@<TRIPOS>BOND
     1     1     2   1
     2     1     5   1
     3     2     3   2
     4     2     6   1
     5     3     4   1
     6     3    16   1
     7     4     5   2
     8     4    15   1
     9     5     9   1
    10     6     7  ar
    11     6     8  ar
    12     9    10  ar
    13     9    14  ar
    14    10    11  ar
    15    11    12  ar
    16    11    21   1
    17    12    13  ar
    18    13    14  ar
    19    16    17   1
    20    17    18   1
    21    18    19  ar
    22    18    20  ar
    23    21    22   1
    24    22    23   1
    25    22    27   1
    26    23    24   1
    27    24    25   1
    28    25    26   1
    29    25    28  am
    30    26    27   1
    31    28    29   2
    32    28    30   2
    33    28    31   1
    34    31    32   1
    35    32    33  ar
    36    32    37  ar
    37    33    34  ar
    38    34    35  ar
    39    35    36  ar
    40    36    37  ar
    41    10    38   1
    42    12    39   1
    43    13    40   1
    44    14    41   1
    45    17    42   1
    46    17    43   1
    47    21    44   1
    48    22    45   1
    49    23    46   1
    50    23    47   1
    51    24    48   1
    52    24    49   1
    53    26    50   1
    54    26    51   1
    55    27    52   1
    56    27    53   1
    57    31    54   1
    58    31    55   1
    59    33    56   1
    60    34    57   1
    61    35    58   1
    62    36    59   1
    63    37    60   1
@<TRIPOS>SUBSTRUCTURE
     1  MOL      2

