@<TRIPOS>MOLECULE
2qbp_ligand_045
    60    63
SMALL
GAST_HUCK
****
This file was generated by PARSER (from files_GN.cpp)

@<TRIPOS>ATOM
      1 S1         44.7802   17.8286    1.8222 S.3         1 MOL      -0.0382
      2 C2         45.9746   17.3822    2.9696 C.2         1 MOL       0.0813
      3 C3         46.4163   16.0971    2.6251 C.2         1 MOL       0.1014
      4 C4         45.8287   15.5730    1.4508 C.2         1 MOL       0.0465
      5 C5         44.8817   16.4173    0.8398 C.2         1 MOL       0.0450
      6 C6         46.2952   18.1205    4.1165 C.2         1 MOL       0.0555
      7 O7         47.5946   18.2557    4.4595 O.co2       1 MOL      -0.5699
      8 O8         45.4221   18.0334    5.1446 O.co2       1 MOL      -0.5699
      9 C9         44.0781   16.1462   -0.2964 C.ar        1 MOL      -0.0166
     10 C10        44.6062   15.4602   -1.4158 C.ar        1 MOL      -0.0362
     11 C11        43.7650   14.9285   -2.4151 C.ar        1 MOL       0.0383
     12 C12        42.3806   15.1985   -2.3533 C.ar        1 MOL      -0.0440
     13 C13        41.8623   16.0088   -1.3280 C.ar        1 MOL      -0.0722
     14 C14        42.7032   16.4687   -0.2974 C.ar        1 MOL      -0.0655
     15 BR19       46.2002   13.8389    0.8652 Br          1 MOL      -0.0668
     16 O20        47.2527   15.4037    3.4629 O.3         1 MOL      -0.3141
     17 C21        46.6358   14.4597    4.3715 C.3         1 MOL       0.1195
     18 C22        45.3996   14.9012    5.0474 C.2         1 MOL       0.0648
     19 O25        45.0729   14.4263    6.2666 O.co2       1 MOL      -0.5663
     20 O26        44.4232   15.4949    4.3276 O.co2       1 MOL      -0.5663
     21 N29        44.3513   14.1181   -3.3322 N.pl3       1 MOL      -0.3201
     22 C30        43.9519   12.7658   -3.5976 C.3         1 MOL       0.0379
     23 C31        44.1950   12.4096   -5.0905 C.3         1 MOL      -0.0135
     24 C32        44.0576   10.8857   -5.3513 C.3         1 MOL       0.0314
     25 N33        44.8642   10.1356   -4.4224 N.am        1 MOL      -0.2365
     26 C34        44.6549   10.3543   -3.0133 C.3         1 MOL       0.0314
     27 C35        44.8103   11.8539   -2.6702 C.3         1 MOL      -0.0135
     28 S46        45.7461    8.7926   -4.9575 S.o2        1 MOL       0.0512
     29 O47        46.6272    8.2142   -3.7656 O.2         1 MOL      -0.1532
     30 O48        46.8813    9.2814   -5.9588 O.2         1 MOL      -0.1532
     31 C49        44.8273    7.4279   -5.7073 C.3         1 MOL       0.1181
     32 C50        43.4686    7.2456   -5.1350 C.ar        1 MOL      -0.0204
     33 C53        43.2544    7.3145   -3.7373 C.ar        1 MOL      -0.0587
     34 C54        41.9630    7.1764   -3.1983 C.ar        1 MOL      -0.0685
     35 C55        40.8710    6.9125   -4.0440 C.ar        1 MOL      -0.0687
     36 C56        41.0721    6.7988   -5.4299 C.ar        1 MOL      -0.0685
     37 C57        42.3597    6.9741   -5.9716 C.ar        1 MOL      -0.0587
     38 H1         45.6087   15.2594   -1.4601 H           1 MOL       0.0516
     39 H2         41.7478   14.8433   -3.0731 H           1 MOL       0.0521
     40 H3         40.8634   16.2301   -1.3105 H           1 MOL       0.0585
     41 H4         42.2885   16.9916    0.4765 H           1 MOL       0.0520
     42 H5         47.3880   14.2235    5.1255 H           1 MOL       0.0780
     43 H6         46.4067   13.5299    3.8528 H           1 MOL       0.0780
     44 H7         45.2991   14.2760   -3.4729 H           1 MOL       0.1756
     45 H8         42.8946   12.5929   -3.3751 H           1 MOL       0.0548
     46 H9         45.2006   12.7204   -5.3847 H           1 MOL       0.0303
     47 H10        43.4782   12.9494   -5.7154 H           1 MOL       0.0303
     48 H11        44.3396   10.6911   -6.3885 H           1 MOL       0.0479
     49 H12        43.0123   10.5836   -5.2370 H           1 MOL       0.0479
     50 H13        45.3612    9.7974   -2.3925 H           1 MOL       0.0479
     51 H14        43.6522   10.0167   -2.7433 H           1 MOL       0.0479
     52 H15        44.5225   12.0158   -1.6282 H           1 MOL       0.0303
     53 H16        45.8685   12.1208   -2.7673 H           1 MOL       0.0303
     54 H17        45.3993    6.5104   -5.5718 H           1 MOL       0.0682
     55 H18        44.7788    7.6296   -6.7780 H           1 MOL       0.0682
     56 H19        44.0355    7.4977   -3.1043 H           1 MOL       0.0557
     57 H20        41.8168    7.2668   -2.1914 H           1 MOL       0.0599
     58 H21        39.9324    6.8017   -3.6515 H           1 MOL       0.0559
     59 H22        40.2815    6.5924   -6.0456 H           1 MOL       0.0599
     60 H23        42.4785    6.8934   -6.9841 H           1 MOL       0.0557
@<TRIPOS>BOND
     1     1     2   1
     2     1     5   1
     3     2     3   2
     4     2     6   1
     5     3     4   1
     6     3    16   1
     7     4     5   2
     8     4    15   1
     9     5     9   1
    10     6     7  ar
    11     6     8  ar
    12     9    10  ar
    13     9    14  ar
    14    10    11  ar
    15    11    12  ar
    16    11    21   1
    17    12    13  ar
    18    13    14  ar
    19    16    17   1
    20    17    18   1
    21    18    19  ar
    22    18    20  ar
    23    21    22   1
    24    22    23   1
    25    22    27   1
    26    23    24   1
    27    24    25   1
    28    25    26   1
    29    25    28  am
    30    26    27   1
    31    28    29   2
    32    28    30   2
    33    28    31   1
    34    31    32   1
    35    32    33  ar
    36    32    37  ar
    37    33    34  ar
    38    34    35  ar
    39    35    36  ar
    40    36    37  ar
    41    10    38   1
    42    12    39   1
    43    13    40   1
    44    14    41   1
    45    17    42   1
    46    17    43   1
    47    21    44   1
    48    22    45   1
    49    23    46   1
    50    23    47   1
    51    24    48   1
    52    24    49   1
    53    26    50   1
    54    26    51   1
    55    27    52   1
    56    27    53   1
    57    31    54   1
    58    31    55   1
    59    33    56   1
    60    34    57   1
    61    35    58   1
    62    36    59   1
    63    37    60   1
@<TRIPOS>SUBSTRUCTURE
     1  MOL      2

