@<TRIPOS>MOLECULE
2qbp_ligand_034
    60    63
SMALL
GAST_HUCK
****
This file was generated by PARSER (from files_GN.cpp)

@<TRIPOS>ATOM
      1 S1         44.1732   14.6621    0.6714 S.3         1 MOL      -0.0382
      2 C2         45.2012   15.5734    1.6918 C.2         1 MOL       0.0813
      3 C3         46.0729   14.6717    2.3233 C.2         1 MOL       0.1014
      4 C4         45.8690   13.3252    1.9512 C.2         1 MOL       0.0465
      5 C5         44.8254   13.1182    1.0389 C.2         1 MOL       0.0450
      6 C6         45.1559   16.9701    1.7955 C.2         1 MOL       0.0555
      7 O7         43.9781   17.6267    1.6589 O.co2       1 MOL      -0.5699
      8 O8         46.2568   17.7032    2.0962 O.co2       1 MOL      -0.5699
      9 C9         44.4717   11.9239    0.3812 C.ar        1 MOL      -0.0166
     10 C10        44.7347   11.7853   -0.9995 C.ar        1 MOL      -0.0362
     11 C11        44.6713   10.5194   -1.6231 C.ar        1 MOL       0.0383
     12 C12        44.2215    9.4104   -0.8806 C.ar        1 MOL      -0.0440
     13 C13        43.8662    9.5562    0.4690 C.ar        1 MOL      -0.0722
     14 C14        44.0159   10.7992    1.1070 C.ar        1 MOL      -0.0655
     15 BR19       47.0001   11.9395    2.4849 Br          1 MOL      -0.0668
     16 O20        47.0665   15.1293    3.1603 O.3         1 MOL      -0.3141
     17 C21        46.8617   15.0050    4.5839 C.3         1 MOL       0.1195
     18 C22        45.4739   15.0962    5.0639 C.2         1 MOL       0.0648
     19 O25        45.1565   14.5985    6.2770 O.co2       1 MOL      -0.5663
     20 O26        44.5854   15.9424    4.4890 O.co2       1 MOL      -0.5663
     21 N29        45.1482   10.4216   -2.8865 N.pl3       1 MOL      -0.3201
     22 C30        46.3739    9.7408   -3.2375 C.3         1 MOL       0.0379
     23 C31        47.3843   10.8703   -3.6178 C.3         1 MOL      -0.0135
     24 C32        48.7969   10.3578   -3.9669 C.3         1 MOL       0.0314
     25 N33        49.2803    9.4350   -2.9737 N.am        1 MOL      -0.2365
     26 C34        48.4445    8.3201   -2.6090 C.3         1 MOL       0.0314
     27 C35        47.0303    8.7944   -2.1873 C.3         1 MOL      -0.0135
     28 S46        50.9064    9.4481   -2.4986 S.o2        1 MOL       0.0512
     29 O47        51.7897   10.2486   -3.5575 O.2         1 MOL      -0.1532
     30 O48        51.5195    7.9781   -2.5765 O.2         1 MOL      -0.1532
     31 C49        51.1877   10.2366   -0.8933 C.3         1 MOL       0.1181
     32 C50        50.7223    9.3993    0.2430 C.ar        1 MOL      -0.0204
     33 C53        49.6625    9.8183    1.0802 C.ar        1 MOL      -0.0587
     34 C54        49.2438    9.0273    2.1669 C.ar        1 MOL      -0.0685
     35 C55        49.8852    7.8051    2.4356 C.ar        1 MOL      -0.0687
     36 C56        50.9467    7.3768    1.6224 C.ar        1 MOL      -0.0685
     37 C57        51.3647    8.1702    0.5361 C.ar        1 MOL      -0.0587
     38 H1         45.1076   12.5830   -1.5320 H           1 MOL       0.0516
     39 H2         44.1333    8.4942   -1.3257 H           1 MOL       0.0521
     40 H3         43.5379    8.7479    0.9994 H           1 MOL       0.0585
     41 H4         43.7941   10.8848    2.1028 H           1 MOL       0.0520
     42 H5         47.4270   15.8089    5.0587 H           1 MOL       0.0780
     43 H6         47.2945   14.0681    4.9409 H           1 MOL       0.0780
     44 H7         45.0048   11.2235   -3.4265 H           1 MOL       0.1756
     45 H8         46.1661    9.1535   -4.1416 H           1 MOL       0.0548
     46 H9         47.4736   11.5633   -2.7689 H           1 MOL       0.0303
     47 H10        46.9969   11.4460   -4.4695 H           1 MOL       0.0303
     48 H11        49.4433   11.2329   -4.0558 H           1 MOL       0.0479
     49 H12        48.7776    9.8543   -4.9399 H           1 MOL       0.0479
     50 H13        48.8659    7.7491   -1.7746 H           1 MOL       0.0479
     51 H14        48.3642    7.6407   -3.4649 H           1 MOL       0.0479
     52 H15        46.4012    7.9152   -2.0366 H           1 MOL       0.0303
     53 H16        47.1238    9.3149   -1.2311 H           1 MOL       0.0303
     54 H17        50.6699   11.1970   -0.9180 H           1 MOL       0.0682
     55 H18        52.2535   10.4429   -0.7822 H           1 MOL       0.0682
     56 H19        49.1870   10.7064    0.9031 H           1 MOL       0.0557
     57 H20        48.4819    9.3362    2.7658 H           1 MOL       0.0599
     58 H21        49.5835    7.2271    3.2233 H           1 MOL       0.0559
     59 H22        51.4238    6.4939    1.8214 H           1 MOL       0.0599
     60 H23        52.1443    7.8408   -0.0417 H           1 MOL       0.0557
@<TRIPOS>BOND
     1     1     2   1
     2     1     5   1
     3     2     3   2
     4     2     6   1
     5     3     4   1
     6     3    16   1
     7     4     5   2
     8     4    15   1
     9     5     9   1
    10     6     7  ar
    11     6     8  ar
    12     9    10  ar
    13     9    14  ar
    14    10    11  ar
    15    11    12  ar
    16    11    21   1
    17    12    13  ar
    18    13    14  ar
    19    16    17   1
    20    17    18   1
    21    18    19  ar
    22    18    20  ar
    23    21    22   1
    24    22    23   1
    25    22    27   1
    26    23    24   1
    27    24    25   1
    28    25    26   1
    29    25    28  am
    30    26    27   1
    31    28    29   2
    32    28    30   2
    33    28    31   1
    34    31    32   1
    35    32    33  ar
    36    32    37  ar
    37    33    34  ar
    38    34    35  ar
    39    35    36  ar
    40    36    37  ar
    41    10    38   1
    42    12    39   1
    43    13    40   1
    44    14    41   1
    45    17    42   1
    46    17    43   1
    47    21    44   1
    48    22    45   1
    49    23    46   1
    50    23    47   1
    51    24    48   1
    52    24    49   1
    53    26    50   1
    54    26    51   1
    55    27    52   1
    56    27    53   1
    57    31    54   1
    58    31    55   1
    59    33    56   1
    60    34    57   1
    61    35    58   1
    62    36    59   1
    63    37    60   1
@<TRIPOS>SUBSTRUCTURE
     1  MOL      2

