@<TRIPOS>MOLECULE
2qbp_ligand_073
    60    63
SMALL
GAST_HUCK
****
This file was generated by PARSER (from files_GN.cpp)

@<TRIPOS>ATOM
      1 S1         43.5438   15.1702    1.8412 S.3         1 MOL      -0.0382
      2 C2         44.6559   16.0433    2.8197 C.2         1 MOL       0.0813
      3 C3         45.8066   15.2529    2.9401 C.2         1 MOL       0.1014
      4 C4         45.7339   13.9985    2.3153 C.2         1 MOL       0.0465
      5 C5         44.5203   13.7629    1.6472 C.2         1 MOL       0.0450
      6 C6         44.4147   17.2975    3.3598 C.2         1 MOL       0.0555
      7 O7         44.0407   17.3858    4.6624 O.co2       1 MOL      -0.5699
      8 O8         44.1529   18.3545    2.5538 O.co2       1 MOL      -0.5699
      9 C9         44.1723   12.6664    0.8461 C.ar        1 MOL      -0.0166
     10 C10        43.9757   12.8586   -0.5394 C.ar        1 MOL      -0.0362
     11 C11        43.8365   11.7610   -1.4168 C.ar        1 MOL       0.0383
     12 C12        43.7690   10.4642   -0.8617 C.ar        1 MOL      -0.0440
     13 C13        43.9161   10.2613    0.5215 C.ar        1 MOL      -0.0722
     14 C14        44.1272   11.3564    1.3794 C.ar        1 MOL      -0.0655
     15 BR19       47.1908   12.8390    2.2579 Br          1 MOL      -0.0668
     16 O20        46.9646   15.7643    3.4441 O.3         1 MOL      -0.3141
     17 C21        47.0887   15.7001    4.8709 C.3         1 MOL       0.1195
     18 C22        47.6548   16.9878    5.2788 C.2         1 MOL       0.0648
     19 O25        46.8272   17.9765    5.6823 O.co2       1 MOL      -0.5663
     20 O26        48.9560   17.2997    5.0445 O.co2       1 MOL      -0.5663
     21 N29        43.7913   12.0512   -2.7394 N.pl3       1 MOL      -0.3201
     22 C30        44.5357   11.4233   -3.8109 C.3         1 MOL       0.0379
     23 C31        45.7330   12.3804   -4.1240 C.3         1 MOL      -0.0135
     24 C32        46.6661   11.8287   -5.2317 C.3         1 MOL       0.0314
     25 N33        47.0375   10.4838   -4.9054 N.am        1 MOL      -0.2365
     26 C34        45.9715    9.5182   -4.7998 C.3         1 MOL       0.0314
     27 C35        45.0239    9.9483   -3.6496 C.3         1 MOL      -0.0135
     28 S46        48.5837   10.1238   -4.3150 S.o2        1 MOL       0.0512
     29 O47        48.4810    9.1113   -3.0886 O.2         1 MOL      -0.1532
     30 O48        49.2619   11.4147   -3.6609 O.2         1 MOL      -0.1532
     31 C49        49.6477    9.4089   -5.5804 C.3         1 MOL       0.1181
     32 C50        49.3681   10.0768   -6.8756 C.ar        1 MOL      -0.0204
     33 C53        50.0487   11.2686   -7.2260 C.ar        1 MOL      -0.0587
     34 C54        49.6959   11.9789   -8.3901 C.ar        1 MOL      -0.0685
     35 C55        48.6611   11.5064   -9.2167 C.ar        1 MOL      -0.0687
     36 C56        47.9852   10.3188   -8.8848 C.ar        1 MOL      -0.0685
     37 C57        48.3381    9.6066   -7.7246 C.ar        1 MOL      -0.0587
     38 H1         44.0373   13.8073   -0.9326 H           1 MOL       0.0516
     39 H2         43.5748    9.6530   -1.4446 H           1 MOL       0.0521
     40 H3         43.8775    9.3146    0.9112 H           1 MOL       0.0585
     41 H4         44.2695   11.1969    2.3797 H           1 MOL       0.0520
     42 H5         47.7623   14.8807    5.1453 H           1 MOL       0.0780
     43 H6         46.1324   15.5511    5.3805 H           1 MOL       0.0780
     44 H7         43.5806   12.9795   -2.9364 H           1 MOL       0.1756
     45 H8         43.8732   11.4491   -4.6873 H           1 MOL       0.0548
     46 H9         46.3272   12.5143   -3.2141 H           1 MOL       0.0303
     47 H10        45.3660   13.3628   -4.4223 H           1 MOL       0.0303
     48 H11        47.5316   12.4904   -5.3449 H           1 MOL       0.0479
     49 H12        46.1402   11.8465   -6.1895 H           1 MOL       0.0479
     50 H13        46.3561    8.5121   -4.6173 H           1 MOL       0.0479
     51 H14        45.4218    9.4864   -5.7448 H           1 MOL       0.0479
     52 H15        44.1668    9.2712   -3.6326 H           1 MOL       0.0303
     53 H16        45.5816    9.8401   -2.7108 H           1 MOL       0.0303
     54 H17        49.4266    8.3381   -5.6339 H           1 MOL       0.0682
     55 H18        50.7002    9.5212   -5.3097 H           1 MOL       0.0682
     56 H19        50.7913   11.6403   -6.6204 H           1 MOL       0.0557
     57 H20        50.1798   12.8476   -8.6201 H           1 MOL       0.0599
     58 H21        48.3921   12.0329  -10.0454 H           1 MOL       0.0559
     59 H22        47.2234    9.9812   -9.4749 H           1 MOL       0.0599
     60 H23        47.8144    8.7588   -7.4795 H           1 MOL       0.0557
@<TRIPOS>BOND
     1     1     2   1
     2     1     5   1
     3     2     3   2
     4     2     6   1
     5     3     4   1
     6     3    16   1
     7     4     5   2
     8     4    15   1
     9     5     9   1
    10     6     7  ar
    11     6     8  ar
    12     9    10  ar
    13     9    14  ar
    14    10    11  ar
    15    11    12  ar
    16    11    21   1
    17    12    13  ar
    18    13    14  ar
    19    16    17   1
    20    17    18   1
    21    18    19  ar
    22    18    20  ar
    23    21    22   1
    24    22    23   1
    25    22    27   1
    26    23    24   1
    27    24    25   1
    28    25    26   1
    29    25    28  am
    30    26    27   1
    31    28    29   2
    32    28    30   2
    33    28    31   1
    34    31    32   1
    35    32    33  ar
    36    32    37  ar
    37    33    34  ar
    38    34    35  ar
    39    35    36  ar
    40    36    37  ar
    41    10    38   1
    42    12    39   1
    43    13    40   1
    44    14    41   1
    45    17    42   1
    46    17    43   1
    47    21    44   1
    48    22    45   1
    49    23    46   1
    50    23    47   1
    51    24    48   1
    52    24    49   1
    53    26    50   1
    54    26    51   1
    55    27    52   1
    56    27    53   1
    57    31    54   1
    58    31    55   1
    59    33    56   1
    60    34    57   1
    61    35    58   1
    62    36    59   1
    63    37    60   1
@<TRIPOS>SUBSTRUCTURE
     1  MOL      2

