@<TRIPOS>MOLECULE
2qbp_ligand_007
    60    63
SMALL
GAST_HUCK
****
This file was generated by PARSER (from files_GN.cpp)

@<TRIPOS>ATOM
      1 S1         44.0007   14.4992    1.2356 S.3         1 MOL      -0.0382
      2 C2         44.5995   15.5636    2.4429 C.2         1 MOL       0.0813
      3 C3         45.6545   14.8806    3.0552 C.2         1 MOL       0.1014
      4 C4         45.9126   13.5885    2.5444 C.2         1 MOL       0.0465
      5 C5         45.0538   13.1580    1.5106 C.2         1 MOL       0.0450
      6 C6         44.0976   16.8420    2.7396 C.2         1 MOL       0.0555
      7 O7         44.1832   17.3628    3.9885 O.co2       1 MOL      -0.5699
      8 O8         43.5992   17.6330    1.7599 O.co2       1 MOL      -0.5699
      9 C9         44.9096   11.8923    0.8480 C.ar        1 MOL      -0.0166
     10 C10        44.1359   11.7709   -0.3438 C.ar        1 MOL      -0.0362
     11 C11        43.7746   10.5109   -0.8765 C.ar        1 MOL       0.0383
     12 C12        44.2922    9.3420   -0.2740 C.ar        1 MOL      -0.0440
     13 C13        45.1483    9.4436    0.8329 C.ar        1 MOL      -0.0722
     14 C14        45.4243   10.6948    1.4071 C.ar        1 MOL      -0.0655
     15 BR19       47.3683   12.6475    3.2180 Br          1 MOL      -0.0668
     16 O20        46.3368   15.3976    4.1210 O.3         1 MOL      -0.3141
     17 C21        47.1979   16.5009    3.7937 C.3         1 MOL       0.1195
     18 C22        47.5357   17.1521    5.0654 C.2         1 MOL       0.0648
     19 O25        46.5745   17.7960    5.7689 O.co2       1 MOL      -0.5663
     20 O26        48.8183   17.2889    5.4659 O.co2       1 MOL      -0.5663
     21 N29        42.8980   10.5093   -1.9153 N.pl3       1 MOL      -0.3201
     22 C30        42.0692    9.4141   -2.3372 C.3         1 MOL       0.0379
     23 C31        40.9066    9.9946   -3.1864 C.3         1 MOL      -0.0135
     24 C32        39.9314    8.8883   -3.6455 C.3         1 MOL       0.0314
     25 N33        40.5901    7.7431   -4.2367 N.am        1 MOL      -0.2365
     26 C34        41.7950    7.2221   -3.6262 C.3         1 MOL       0.0314
     27 C35        42.7920    8.3266   -3.1849 C.3         1 MOL      -0.0135
     28 S46        39.6398    6.7239   -5.1948 S.o2        1 MOL       0.0512
     29 O47        40.5148    5.5185   -5.7621 O.2         1 MOL      -0.1532
     30 O48        39.2586    7.5035   -6.5307 O.2         1 MOL      -0.1532
     31 C49        38.1594    5.9883   -4.4517 C.3         1 MOL       0.1181
     32 C50        37.4287    6.9428   -3.5763 C.ar        1 MOL      -0.0204
     33 C53        36.6606    7.9925   -4.1379 C.ar        1 MOL      -0.0587
     34 C54        36.0538    8.9608   -3.3149 C.ar        1 MOL      -0.0685
     35 C55        36.1832    8.8761   -1.9191 C.ar        1 MOL      -0.0687
     36 C56        36.9118    7.8237   -1.3425 C.ar        1 MOL      -0.0685
     37 C57        37.5164    6.8518   -2.1635 C.ar        1 MOL      -0.0587
     38 H1         43.7666   12.6107   -0.7980 H           1 MOL       0.0516
     39 H2         44.0614    8.4100   -0.6221 H           1 MOL       0.0521
     40 H3         45.5280    8.5924    1.2528 H           1 MOL       0.0585
     41 H4         45.9456   10.7006    2.2877 H           1 MOL       0.0520
     42 H5         46.7112   17.2483    3.1506 H           1 MOL       0.0780
     43 H6         48.1111   16.1431    3.2966 H           1 MOL       0.0780
     44 H7         42.6176   11.3870   -2.2277 H           1 MOL       0.1756
     45 H8         41.6276    8.9388   -1.4521 H           1 MOL       0.0548
     46 H9         41.3104   10.5064   -4.0681 H           1 MOL       0.0303
     47 H10        40.3525   10.7336   -2.5980 H           1 MOL       0.0303
     48 H11        39.2298    9.3413   -4.3534 H           1 MOL       0.0479
     49 H12        39.3623    8.5587   -2.7743 H           1 MOL       0.0479
     50 H13        42.3240    6.5565   -4.3168 H           1 MOL       0.0479
     51 H14        41.5135    6.6295   -2.7535 H           1 MOL       0.0479
     52 H15        43.6009    7.8709   -2.6115 H           1 MOL       0.0303
     53 H16        43.2357    8.7882   -4.0732 H           1 MOL       0.0303
     54 H17        38.4829    5.1111   -3.8892 H           1 MOL       0.0682
     55 H18        37.4917    5.6407   -5.2423 H           1 MOL       0.0682
     56 H19        36.5644    8.0741   -5.1512 H           1 MOL       0.0557
     57 H20        35.5195    9.7246   -3.7352 H           1 MOL       0.0599
     58 H21        35.7472    9.5839   -1.3217 H           1 MOL       0.0559
     59 H22        37.0144    7.7670   -0.3265 H           1 MOL       0.0599
     60 H23        38.0489    6.0994   -1.7262 H           1 MOL       0.0557
@<TRIPOS>BOND
     1     1     2   1
     2     1     5   1
     3     2     3   2
     4     2     6   1
     5     3     4   1
     6     3    16   1
     7     4     5   2
     8     4    15   1
     9     5     9   1
    10     6     7  ar
    11     6     8  ar
    12     9    10  ar
    13     9    14  ar
    14    10    11  ar
    15    11    12  ar
    16    11    21   1
    17    12    13  ar
    18    13    14  ar
    19    16    17   1
    20    17    18   1
    21    18    19  ar
    22    18    20  ar
    23    21    22   1
    24    22    23   1
    25    22    27   1
    26    23    24   1
    27    24    25   1
    28    25    26   1
    29    25    28  am
    30    26    27   1
    31    28    29   2
    32    28    30   2
    33    28    31   1
    34    31    32   1
    35    32    33  ar
    36    32    37  ar
    37    33    34  ar
    38    34    35  ar
    39    35    36  ar
    40    36    37  ar
    41    10    38   1
    42    12    39   1
    43    13    40   1
    44    14    41   1
    45    17    42   1
    46    17    43   1
    47    21    44   1
    48    22    45   1
    49    23    46   1
    50    23    47   1
    51    24    48   1
    52    24    49   1
    53    26    50   1
    54    26    51   1
    55    27    52   1
    56    27    53   1
    57    31    54   1
    58    31    55   1
    59    33    56   1
    60    34    57   1
    61    35    58   1
    62    36    59   1
    63    37    60   1
@<TRIPOS>SUBSTRUCTURE
     1  MOL      2

