@<TRIPOS>MOLECULE
2qbp_ligand_036
    60    63
SMALL
GAST_HUCK
****
This file was generated by PARSER (from files_GN.cpp)

@<TRIPOS>ATOM
      1 S1         46.4512   12.2122    2.5639 S.3         1 MOL      -0.0382
      2 C2         46.1433   13.6047    3.5291 C.2         1 MOL       0.0813
      3 C3         45.5130   14.5447    2.7085 C.2         1 MOL       0.1014
      4 C4         45.2844   14.0894    1.3849 C.2         1 MOL       0.0465
      5 C5         45.7481   12.7894    1.1027 C.2         1 MOL       0.0450
      6 C6         46.4615   13.7066    4.8838 C.2         1 MOL       0.0555
      7 O7         45.5353   14.0884    5.7943 O.co2       1 MOL      -0.5699
      8 O8         47.7711   13.6972    5.2550 O.co2       1 MOL      -0.5699
      9 C9         45.6487   11.9974   -0.0680 C.ar        1 MOL      -0.0166
     10 C10        44.4246   11.8611   -0.7710 C.ar        1 MOL      -0.0362
     11 C11        44.2481   10.8940   -1.7915 C.ar        1 MOL       0.0383
     12 C12        45.3693   10.1492   -2.2035 C.ar        1 MOL      -0.0440
     13 C13        46.6099   10.3145   -1.5672 C.ar        1 MOL      -0.0722
     14 C14        46.7432   11.2029   -0.4891 C.ar        1 MOL      -0.0655
     15 BR19       44.4942   15.2142    0.1160 Br          1 MOL      -0.0668
     16 O20        45.1543   15.7863    3.1477 O.3         1 MOL      -0.3141
     17 C21        46.2722   16.6643    3.4131 C.3         1 MOL       0.1195
     18 C22        45.8385   17.8404    4.1792 C.2         1 MOL       0.0648
     19 O25        44.8537   17.6969    5.0950 O.co2       1 MOL      -0.5663
     20 O26        46.6899   18.8821    4.3318 O.co2       1 MOL      -0.5663
     21 N29        42.9838   10.7683   -2.2873 N.pl3       1 MOL      -0.3201
     22 C30        42.2313    9.5951   -2.6584 C.3         1 MOL       0.0379
     23 C31        41.0478   10.0780   -3.5370 C.3         1 MOL      -0.0135
     24 C32        40.0381    8.9337   -3.8336 C.3         1 MOL       0.0314
     25 N33        40.6721    7.7459   -4.3444 N.am        1 MOL      -0.2365
     26 C34        41.8756    7.2661   -3.7149 C.3         1 MOL       0.0314
     27 C35        42.9070    8.3834   -3.3619 C.3         1 MOL      -0.0135
     28 S46        39.6855    6.6605   -5.2111 S.o2        1 MOL       0.0512
     29 O47        40.5598    5.4411   -5.7543 O.2         1 MOL      -0.1532
     30 O48        39.2554    7.3610   -6.5804 O.2         1 MOL      -0.1532
     31 C49        38.2246    5.9408   -4.4330 C.3         1 MOL       0.1181
     32 C50        37.4809    6.9447   -3.6314 C.ar        1 MOL      -0.0204
     33 C53        36.7741    7.9890   -4.2673 C.ar        1 MOL      -0.0587
     34 C54        36.1643    9.0096   -3.5103 C.ar        1 MOL      -0.0685
     35 C55        36.2454    8.9903   -2.1044 C.ar        1 MOL      -0.0687
     36 C56        36.9113    7.9332   -1.4618 C.ar        1 MOL      -0.0685
     37 C57        37.5107    6.9098   -2.2180 C.ar        1 MOL      -0.0587
     38 H1         43.6129   12.4031   -0.4575 H           1 MOL       0.0516
     39 H2         45.3092    9.5226   -3.0030 H           1 MOL       0.0521
     40 H3         47.4282    9.7718   -1.8781 H           1 MOL       0.0585
     41 H4         47.6388   11.2616   -0.0065 H           1 MOL       0.0520
     42 H5         46.7107   17.0029    2.4681 H           1 MOL       0.0780
     43 H6         47.0488   16.1637    3.9983 H           1 MOL       0.0780
     44 H7         42.4096   11.5104   -2.0251 H           1 MOL       0.1756
     45 H8         41.8129    9.2287   -1.7194 H           1 MOL       0.0548
     46 H9         41.4251   10.4804   -4.4869 H           1 MOL       0.0303
     47 H10        40.5025   10.8844   -3.0298 H           1 MOL       0.0303
     48 H11        39.3009    9.3249   -4.5360 H           1 MOL       0.0479
     49 H12        39.5154    8.6875   -2.9058 H           1 MOL       0.0479
     50 H13        42.3871    6.5379   -4.3599 H           1 MOL       0.0479
     51 H14        41.5959    6.7400   -2.7956 H           1 MOL       0.0479
     52 H15        43.6637    7.9539   -2.7057 H           1 MOL       0.0303
     53 H16        43.3925    8.7165   -4.2821 H           1 MOL       0.0303
     54 H17        38.5512    5.1003   -3.8118 H           1 MOL       0.0682
     55 H18        37.5659    5.5241   -5.2059 H           1 MOL       0.0682
     56 H19        36.7131    8.0314   -5.2883 H           1 MOL       0.0557
     57 H20        35.6837    9.7812   -3.9829 H           1 MOL       0.0599
     58 H21        35.8327    9.7446   -1.5581 H           1 MOL       0.0559
     59 H22        36.9774    7.9189   -0.4374 H           1 MOL       0.0599
     60 H23        37.9917    6.1522   -1.7254 H           1 MOL       0.0557
@<TRIPOS>BOND
     1     1     2   1
     2     1     5   1
     3     2     3   2
     4     2     6   1
     5     3     4   1
     6     3    16   1
     7     4     5   2
     8     4    15   1
     9     5     9   1
    10     6     7  ar
    11     6     8  ar
    12     9    10  ar
    13     9    14  ar
    14    10    11  ar
    15    11    12  ar
    16    11    21   1
    17    12    13  ar
    18    13    14  ar
    19    16    17   1
    20    17    18   1
    21    18    19  ar
    22    18    20  ar
    23    21    22   1
    24    22    23   1
    25    22    27   1
    26    23    24   1
    27    24    25   1
    28    25    26   1
    29    25    28  am
    30    26    27   1
    31    28    29   2
    32    28    30   2
    33    28    31   1
    34    31    32   1
    35    32    33  ar
    36    32    37  ar
    37    33    34  ar
    38    34    35  ar
    39    35    36  ar
    40    36    37  ar
    41    10    38   1
    42    12    39   1
    43    13    40   1
    44    14    41   1
    45    17    42   1
    46    17    43   1
    47    21    44   1
    48    22    45   1
    49    23    46   1
    50    23    47   1
    51    24    48   1
    52    24    49   1
    53    26    50   1
    54    26    51   1
    55    27    52   1
    56    27    53   1
    57    31    54   1
    58    31    55   1
    59    33    56   1
    60    34    57   1
    61    35    58   1
    62    36    59   1
    63    37    60   1
@<TRIPOS>SUBSTRUCTURE
     1  MOL      2

