@<TRIPOS>MOLECULE
2qbp_ligand_048
    60    63
SMALL
GAST_HUCK
****
This file was generated by PARSER (from files_GN.cpp)

@<TRIPOS>ATOM
      1 S1         44.2868   15.6305    1.1504 S.3         1 MOL      -0.0382
      2 C2         44.6900   16.1767    2.7260 C.2         1 MOL       0.0813
      3 C3         45.4680   15.1638    3.3006 C.2         1 MOL       0.1014
      4 C4         45.6048   14.0008    2.5085 C.2         1 MOL       0.0465
      5 C5         45.0316   14.0756    1.2159 C.2         1 MOL       0.0450
      6 C6         44.2855   17.3906    3.2899 C.2         1 MOL       0.0555
      7 O7         43.9535   17.4485    4.5989 O.co2       1 MOL      -0.5699
      8 O8         43.9614   18.4316    2.4908 O.co2       1 MOL      -0.5699
      9 C9         45.0352   13.1569    0.1169 C.ar        1 MOL      -0.0166
     10 C10        46.0373   12.1630   -0.0263 C.ar        1 MOL      -0.0362
     11 C11        46.0813   11.2729   -1.1188 C.ar        1 MOL       0.0383
     12 C12        45.1393   11.4391   -2.1467 C.ar        1 MOL      -0.0440
     13 C13        44.1161   12.4006   -2.0343 C.ar        1 MOL      -0.0722
     14 C14        44.0634   13.2352   -0.9103 C.ar        1 MOL      -0.0655
     15 BR19       46.4113   12.4981    3.2632 Br          1 MOL      -0.0668
     16 O20        46.0769   15.3160    4.5233 O.3         1 MOL      -0.3141
     17 C21        47.4964   15.6031    4.4539 C.3         1 MOL       0.1195
     18 C22        47.7924   17.0352    4.6280 C.2         1 MOL       0.0648
     19 O25        48.7060   17.4390    5.5397 O.co2       1 MOL      -0.5663
     20 O26        47.3556   17.9407    3.7287 O.co2       1 MOL      -0.5663
     21 N29        46.9627   10.2352   -1.2503 N.pl3       1 MOL      -0.3201
     22 C30        47.4951    9.3590   -0.2409 C.3         1 MOL       0.0379
     23 C31        48.6034    9.8638    0.7313 C.3         1 MOL      -0.0135
     24 C32        49.0709    8.7259    1.6859 C.3         1 MOL       0.0314
     25 N33        47.9580    8.0729    2.3318 N.am        1 MOL      -0.2365
     26 C34        46.8684    7.5999    1.5190 C.3         1 MOL       0.0314
     27 C35        46.3460    8.6906    0.5573 C.3         1 MOL      -0.0135
     28 S46        48.1811    7.3831    3.8688 S.o2        1 MOL       0.0512
     29 O47        46.7721    7.2338    4.5907 O.2         1 MOL      -0.1532
     30 O48        48.9011    8.4226    4.8298 O.2         1 MOL      -0.1532
     31 C49        49.0041    5.7721    3.9162 C.3         1 MOL       0.1181
     32 C50        50.3855    5.8517    3.3784 C.ar        1 MOL      -0.0204
     33 C53        50.6912    5.3701    2.0844 C.ar        1 MOL      -0.0587
     34 C54        52.0083    5.4385    1.5874 C.ar        1 MOL      -0.0685
     35 C55        53.0318    5.9802    2.3760 C.ar        1 MOL      -0.0687
     36 C56        52.7427    6.4666    3.6666 C.ar        1 MOL      -0.0685
     37 C57        51.4285    6.4043    4.1585 C.ar        1 MOL      -0.0587
     38 H1         46.7985   12.1586    0.6305 H           1 MOL       0.0516
     39 H2         45.1441   10.8278   -2.9619 H           1 MOL       0.0521
     40 H3         43.4150   12.4813   -2.7707 H           1 MOL       0.0585
     41 H4         43.3026   13.9155   -0.8605 H           1 MOL       0.0520
     42 H5         47.9680   15.2658    3.5238 H           1 MOL       0.0780
     43 H6         47.9724   15.0435    5.2595 H           1 MOL       0.0780
     44 H7         46.9901    9.8534   -2.1379 H           1 MOL       0.1756
     45 H8         47.9670    8.5587   -0.8169 H           1 MOL       0.0548
     46 H9         48.2457   10.6667    1.3679 H           1 MOL       0.0303
     47 H10        49.4543   10.2469    0.1649 H           1 MOL       0.0303
     48 H11        49.7625    9.1475    2.4196 H           1 MOL       0.0479
     49 H12        49.6287    7.9848    1.1140 H           1 MOL       0.0479
     50 H13        46.0216    7.2901    2.1248 H           1 MOL       0.0479
     51 H14        47.1989    6.7287    0.9513 H           1 MOL       0.0479
     52 H15        45.6165    8.2486   -0.1254 H           1 MOL       0.0303
     53 H16        45.8326    9.4527    1.1432 H           1 MOL       0.0303
     54 H17        48.3853    5.0779    3.3416 H           1 MOL       0.0682
     55 H18        49.0363    5.4003    4.9448 H           1 MOL       0.0682
     56 H19        49.9574    4.9841    1.4893 H           1 MOL       0.0557
     57 H20        52.2116    5.0913    0.6474 H           1 MOL       0.0599
     58 H21        53.9863    6.0198    2.0176 H           1 MOL       0.0559
     59 H22        53.4888    6.8480    4.2455 H           1 MOL       0.0599
     60 H23        51.2387    6.7532    5.1001 H           1 MOL       0.0557
@<TRIPOS>BOND
     1     1     2   1
     2     1     5   1
     3     2     3   2
     4     2     6   1
     5     3     4   1
     6     3    16   1
     7     4     5   2
     8     4    15   1
     9     5     9   1
    10     6     7  ar
    11     6     8  ar
    12     9    10  ar
    13     9    14  ar
    14    10    11  ar
    15    11    12  ar
    16    11    21   1
    17    12    13  ar
    18    13    14  ar
    19    16    17   1
    20    17    18   1
    21    18    19  ar
    22    18    20  ar
    23    21    22   1
    24    22    23   1
    25    22    27   1
    26    23    24   1
    27    24    25   1
    28    25    26   1
    29    25    28  am
    30    26    27   1
    31    28    29   2
    32    28    30   2
    33    28    31   1
    34    31    32   1
    35    32    33  ar
    36    32    37  ar
    37    33    34  ar
    38    34    35  ar
    39    35    36  ar
    40    36    37  ar
    41    10    38   1
    42    12    39   1
    43    13    40   1
    44    14    41   1
    45    17    42   1
    46    17    43   1
    47    21    44   1
    48    22    45   1
    49    23    46   1
    50    23    47   1
    51    24    48   1
    52    24    49   1
    53    26    50   1
    54    26    51   1
    55    27    52   1
    56    27    53   1
    57    31    54   1
    58    31    55   1
    59    33    56   1
    60    34    57   1
    61    35    58   1
    62    36    59   1
    63    37    60   1
@<TRIPOS>SUBSTRUCTURE
     1  MOL      2

