@<TRIPOS>MOLECULE
2qbp_ligand_076
    60    63
SMALL
GAST_HUCK
****
This file was generated by PARSER (from files_GN.cpp)

@<TRIPOS>ATOM
      1 S1         47.2511   12.6825    3.5236 S.3         1 MOL      -0.0382
      2 C2         45.8429   13.6655    3.4513 C.2         1 MOL       0.0813
      3 C3         45.3075   13.5079    2.1627 C.2         1 MOL       0.1014
      4 C4         46.0441   12.6366    1.3278 C.2         1 MOL       0.0465
      5 C5         47.1883   12.0744    1.9166 C.2         1 MOL       0.0450
      6 C6         45.3442   14.4302    4.5224 C.2         1 MOL       0.0555
      7 O7         45.6595   14.1288    5.8029 O.co2       1 MOL      -0.5699
      8 O8         44.4757   15.4448    4.3136 O.co2       1 MOL      -0.5699
      9 C9         48.1773   11.2381    1.3479 C.ar        1 MOL      -0.0166
     10 C10        48.6026   10.0659    2.0109 C.ar        1 MOL      -0.0362
     11 C11        49.7189    9.3259    1.5609 C.ar        1 MOL       0.0383
     12 C12        50.3804    9.7585    0.3808 C.ar        1 MOL      -0.0440
     13 C13        49.9324   10.8922   -0.3174 C.ar        1 MOL      -0.0722
     14 C14        48.8409   11.6340    0.1647 C.ar        1 MOL      -0.0655
     15 BR19       45.4532   12.1564   -0.3742 Br          1 MOL      -0.0668
     16 O20        44.1057   14.0584    1.7964 O.3         1 MOL      -0.3141
     17 C21        44.1355   15.0873    0.7857 C.3         1 MOL       0.1195
     18 C22        43.8382   16.4102    1.3572 C.2         1 MOL       0.0648
     19 O25        44.2302   17.5193    0.6907 O.co2       1 MOL      -0.5663
     20 O26        42.8309   16.5408    2.2489 O.co2       1 MOL      -0.5663
     21 N29        50.1316    8.2874    2.3354 N.pl3       1 MOL      -0.3201
     22 C30        51.4345    7.6755    2.3988 C.3         1 MOL       0.0379
     23 C31        52.0135    7.8828    3.8247 C.3         1 MOL      -0.0135
     24 C32        51.2855    7.0177    4.8856 C.3         1 MOL       0.0314
     25 N33        51.2287    5.6346    4.4845 N.am        1 MOL      -0.2365
     26 C34        50.7351    5.3030    3.1746 C.3         1 MOL       0.0314
     27 C35        51.3984    6.1589    2.0635 C.3         1 MOL      -0.0135
     28 S46        51.3303    4.4323    5.6732 S.o2        1 MOL       0.0512
     29 O47        50.4429    3.1759    5.2659 O.2         1 MOL      -0.1532
     30 O48        50.6236    4.9367    7.0107 O.2         1 MOL      -0.1532
     31 C49        53.0371    3.9491    6.0359 C.3         1 MOL       0.1181
     32 C50        53.1888    2.4737    6.0594 C.ar        1 MOL      -0.0204
     33 C53        53.4605    1.7661    4.8658 C.ar        1 MOL      -0.0587
     34 C54        53.5618    0.3631    4.8686 C.ar        1 MOL      -0.0685
     35 C55        53.3882   -0.3520    6.0695 C.ar        1 MOL      -0.0687
     36 C56        53.1101    0.3404    7.2627 C.ar        1 MOL      -0.0685
     37 C57        53.0076    1.7441    7.2580 C.ar        1 MOL      -0.0587
     38 H1         48.1354    9.7786    2.8759 H           1 MOL       0.0516
     39 H2         51.1741    9.2436   -0.0006 H           1 MOL       0.0521
     40 H3         50.4150   11.1975   -1.1662 H           1 MOL       0.0585
     41 H4         48.5756   12.4957   -0.3198 H           1 MOL       0.0520
     42 H5         43.3507   14.8535    0.0679 H           1 MOL       0.0780
     43 H6         45.0821   15.1387    0.2378 H           1 MOL       0.0780
     44 H7         49.5215    8.0310    3.0465 H           1 MOL       0.1756
     45 H8         52.1174    8.1553    1.7007 H           1 MOL       0.0548
     46 H9         51.9530    8.9382    4.1022 H           1 MOL       0.0303
     47 H10        53.0695    7.6048    3.8233 H           1 MOL       0.0303
     48 H11        50.2669    7.3849    5.0372 H           1 MOL       0.0479
     49 H12        51.8228    7.1389    5.8306 H           1 MOL       0.0479
     50 H13        49.6525    5.4542    3.1575 H           1 MOL       0.0479
     51 H14        50.9303    4.2560    2.9307 H           1 MOL       0.0479
     52 H15        52.4305    5.8121    1.9339 H           1 MOL       0.0303
     53 H16        50.8780    6.0022    1.1109 H           1 MOL       0.0303
     54 H17        53.3267    4.3858    6.9934 H           1 MOL       0.0682
     55 H18        53.6904    4.3846    5.2765 H           1 MOL       0.0682
     56 H19        53.5747    2.2667    3.9809 H           1 MOL       0.0557
     57 H20        53.7575   -0.1385    3.9998 H           1 MOL       0.0599
     58 H21        53.4601   -1.3707    6.0718 H           1 MOL       0.0559
     59 H22        52.9797   -0.1796    8.1317 H           1 MOL       0.0599
     60 H23        52.7913    2.2282    8.1329 H           1 MOL       0.0557
@<TRIPOS>BOND
     1     1     2   1
     2     1     5   1
     3     2     3   2
     4     2     6   1
     5     3     4   1
     6     3    16   1
     7     4     5   2
     8     4    15   1
     9     5     9   1
    10     6     7  ar
    11     6     8  ar
    12     9    10  ar
    13     9    14  ar
    14    10    11  ar
    15    11    12  ar
    16    11    21   1
    17    12    13  ar
    18    13    14  ar
    19    16    17   1
    20    17    18   1
    21    18    19  ar
    22    18    20  ar
    23    21    22   1
    24    22    23   1
    25    22    27   1
    26    23    24   1
    27    24    25   1
    28    25    26   1
    29    25    28  am
    30    26    27   1
    31    28    29   2
    32    28    30   2
    33    28    31   1
    34    31    32   1
    35    32    33  ar
    36    32    37  ar
    37    33    34  ar
    38    34    35  ar
    39    35    36  ar
    40    36    37  ar
    41    10    38   1
    42    12    39   1
    43    13    40   1
    44    14    41   1
    45    17    42   1
    46    17    43   1
    47    21    44   1
    48    22    45   1
    49    23    46   1
    50    23    47   1
    51    24    48   1
    52    24    49   1
    53    26    50   1
    54    26    51   1
    55    27    52   1
    56    27    53   1
    57    31    54   1
    58    31    55   1
    59    33    56   1
    60    34    57   1
    61    35    58   1
    62    36    59   1
    63    37    60   1
@<TRIPOS>SUBSTRUCTURE
     1  MOL      2

