@<TRIPOS>MOLECULE
2qbp_ligand_074
    60    63
SMALL
GAST_HUCK
****
This file was generated by PARSER (from files_GN.cpp)

@<TRIPOS>ATOM
      1 S1         44.6617   17.8428    1.8370 S.3         1 MOL      -0.0382
      2 C2         45.5996   17.1845    3.1230 C.2         1 MOL       0.0813
      3 C3         45.8982   15.8499    2.7895 C.2         1 MOL       0.1014
      4 C4         45.3789   15.4548    1.5385 C.2         1 MOL       0.0465
      5 C5         44.6431   16.4341    0.8575 C.2         1 MOL       0.0450
      6 C6         45.9155   17.9200    4.2698 C.2         1 MOL       0.0555
      7 O7         45.0340   17.9318    5.2986 O.co2       1 MOL      -0.5699
      8 O8         46.8512   18.9005    4.2182 O.co2       1 MOL      -0.5699
      9 C9         43.9513   16.3051   -0.3634 C.ar        1 MOL      -0.0166
     10 C10        44.5895   15.7709   -1.5025 C.ar        1 MOL      -0.0362
     11 C11        43.8629   15.4471   -2.6718 C.ar        1 MOL       0.0383
     12 C12        42.4855   15.7480   -2.7212 C.ar        1 MOL      -0.0440
     13 C13        41.8463   16.3417   -1.6167 C.ar        1 MOL      -0.0722
     14 C14        42.5727   16.6064   -0.4407 C.ar        1 MOL      -0.0655
     15 BR19       45.6114   13.7251    0.8852 Br          1 MOL      -0.0668
     16 O20        46.6065   14.9166    3.5168 O.3         1 MOL      -0.3141
     17 C21        47.4691   15.2478    4.6201 C.3         1 MOL       0.1195
     18 C22        48.6127   16.1177    4.3017 C.2         1 MOL       0.0648
     19 O25        49.0366   17.0325    5.1994 O.co2       1 MOL      -0.5663
     20 O26        49.0956   16.1849    3.0359 O.co2       1 MOL      -0.5663
     21 N29        44.5488   14.7776   -3.6330 N.pl3       1 MOL      -0.3201
     22 C30        44.2999   13.4005   -3.9752 C.3         1 MOL       0.0379
     23 C31        44.5748   12.5001   -2.7411 C.3         1 MOL      -0.0135
     24 C32        44.4726   11.0040   -3.0894 C.3         1 MOL       0.0314
     25 N33        43.2895   10.6705   -3.8345 N.am        1 MOL      -0.2365
     26 C34        42.8801   11.5104   -4.9392 C.3         1 MOL       0.0314
     27 C35        42.9284   13.0235   -4.5937 C.3         1 MOL      -0.0135
     28 S46        42.6701    9.0915   -3.7423 S.o2        1 MOL       0.0512
     29 O47        42.2624    8.6096   -5.2045 O.2         1 MOL      -0.1532
     30 O48        41.3081    9.1096   -2.9206 O.2         1 MOL      -0.1532
     31 C49        43.7281    7.7361   -3.1562 C.3         1 MOL       0.1181
     32 C50        44.4338    8.0123   -1.8745 C.ar        1 MOL      -0.0204
     33 C53        45.8418    7.8805   -1.7761 C.ar        1 MOL      -0.0587
     34 C54        46.5105    8.1657   -0.5722 C.ar        1 MOL      -0.0685
     35 C55        45.7805    8.5894    0.5537 C.ar        1 MOL      -0.0687
     36 C56        44.3816    8.7238    0.4719 C.ar        1 MOL      -0.0685
     37 C57        43.7198    8.4414   -0.7341 C.ar        1 MOL      -0.0587
     38 H1         45.5820   15.5260   -1.4571 H           1 MOL       0.0516
     39 H2         41.9449   15.5710   -3.5712 H           1 MOL       0.0521
     40 H3         40.8482   16.5577   -1.6600 H           1 MOL       0.0585
     41 H4         42.0799   16.9823    0.3719 H           1 MOL       0.0520
     42 H5         47.8799   14.3108    5.0023 H           1 MOL       0.0780
     43 H6         46.8769   15.6834    5.4316 H           1 MOL       0.0780
     44 H7         45.4979   14.9905   -3.6467 H           1 MOL       0.1756
     45 H8         45.0607   13.1660   -4.7273 H           1 MOL       0.0548
     46 H9         43.8451   12.7218   -1.9562 H           1 MOL       0.0303
     47 H10        45.5718   12.7030   -2.3373 H           1 MOL       0.0303
     48 H11        44.4851   10.4850   -2.1370 H           1 MOL       0.0479
     49 H12        45.3469   10.6954   -3.6655 H           1 MOL       0.0479
     50 H13        41.8518   11.2916   -5.2516 H           1 MOL       0.0479
     51 H14        43.5349   11.3166   -5.7950 H           1 MOL       0.0479
     52 H15        42.7492   13.6237   -5.4888 H           1 MOL       0.0303
     53 H16        42.1257   13.2242   -3.8780 H           1 MOL       0.0303
     54 H17        44.4398    7.5085   -3.9535 H           1 MOL       0.0682
     55 H18        43.1041    6.8505   -3.0189 H           1 MOL       0.0682
     56 H19        46.3942    7.5876   -2.5855 H           1 MOL       0.0557
     57 H20        47.5241    8.0779   -0.5164 H           1 MOL       0.0599
     58 H21        46.2638    8.7889    1.4324 H           1 MOL       0.0559
     59 H22        43.8470    9.0279    1.2887 H           1 MOL       0.0599
     60 H23        42.7025    8.5606   -0.7765 H           1 MOL       0.0557
@<TRIPOS>BOND
     1     1     2   1
     2     1     5   1
     3     2     3   2
     4     2     6   1
     5     3     4   1
     6     3    16   1
     7     4     5   2
     8     4    15   1
     9     5     9   1
    10     6     7  ar
    11     6     8  ar
    12     9    10  ar
    13     9    14  ar
    14    10    11  ar
    15    11    12  ar
    16    11    21   1
    17    12    13  ar
    18    13    14  ar
    19    16    17   1
    20    17    18   1
    21    18    19  ar
    22    18    20  ar
    23    21    22   1
    24    22    23   1
    25    22    27   1
    26    23    24   1
    27    24    25   1
    28    25    26   1
    29    25    28  am
    30    26    27   1
    31    28    29   2
    32    28    30   2
    33    28    31   1
    34    31    32   1
    35    32    33  ar
    36    32    37  ar
    37    33    34  ar
    38    34    35  ar
    39    35    36  ar
    40    36    37  ar
    41    10    38   1
    42    12    39   1
    43    13    40   1
    44    14    41   1
    45    17    42   1
    46    17    43   1
    47    21    44   1
    48    22    45   1
    49    23    46   1
    50    23    47   1
    51    24    48   1
    52    24    49   1
    53    26    50   1
    54    26    51   1
    55    27    52   1
    56    27    53   1
    57    31    54   1
    58    31    55   1
    59    33    56   1
    60    34    57   1
    61    35    58   1
    62    36    59   1
    63    37    60   1
@<TRIPOS>SUBSTRUCTURE
     1  MOL      2

