@<TRIPOS>MOLECULE
2qbp_ligand_044
    60    63
SMALL
GAST_HUCK
****
This file was generated by PARSER (from files_GN.cpp)

@<TRIPOS>ATOM
      1 S1         45.0544   14.2389   -0.0104 S.3         1 MOL      -0.0382
      2 C2         44.4418   15.2887    1.2093 C.2         1 MOL       0.0813
      3 C3         44.9072   14.7956    2.4366 C.2         1 MOL       0.1014
      4 C4         45.6880   13.6248    2.3379 C.2         1 MOL       0.0465
      5 C5         45.8949   13.1591    1.0296 C.2         1 MOL       0.0450
      6 C6         43.6766   16.4426    0.9605 C.2         1 MOL       0.0555
      7 O7         43.7493   17.5283    1.7607 O.co2       1 MOL      -0.5699
      8 O8         42.9255   16.5396   -0.1564 O.co2       1 MOL      -0.5699
      9 C9         46.7585   12.1188    0.6164 C.ar        1 MOL      -0.0166
     10 C10        46.5480   10.7854    1.0457 C.ar        1 MOL      -0.0362
     11 C11        47.5730    9.8213    0.9505 C.ar        1 MOL       0.0383
     12 C12        48.7714   10.1625    0.2837 C.ar        1 MOL      -0.0440
     13 C13        48.9471   11.4563   -0.2496 C.ar        1 MOL      -0.0722
     14 C14        47.9528   12.4298   -0.0681 C.ar        1 MOL      -0.0655
     15 BR19       46.4868   12.8601    3.8419 Br          1 MOL      -0.0668
     16 O20        44.6169   15.4100    3.6271 O.3         1 MOL      -0.3141
     17 C21        45.7733   15.8601    4.3680 C.3         1 MOL       0.1195
     18 C22        45.4500   17.0771    5.1298 C.2         1 MOL       0.0648
     19 O25        44.1728   17.4878    5.2864 O.co2       1 MOL      -0.5663
     20 O26        46.4048   17.6739    5.8820 O.co2       1 MOL      -0.5663
     21 N29        47.3645    8.6351    1.5872 N.pl3       1 MOL      -0.3201
     22 C30        48.3432    7.7270    2.1121 C.3         1 MOL       0.0379
     23 C31        47.9284    7.3494    3.5707 C.3         1 MOL      -0.0135
     24 C32        48.8979    6.3015    4.1733 C.3         1 MOL       0.0314
     25 N33        49.0797    5.1750    3.2924 N.am        1 MOL      -0.2365
     26 C34        49.4052    5.4143    1.9042 C.3         1 MOL       0.0314
     27 C35        48.4477    6.4449    1.2493 C.3         1 MOL      -0.0135
     28 S46        49.3770    3.6383    3.9436 S.o2        1 MOL       0.0512
     29 O47        48.2312    2.6868    3.3937 O.2         1 MOL      -0.1532
     30 O48        49.1079    3.5900    5.5083 O.2         1 MOL      -0.1532
     31 C49        50.9698    2.8651    3.5758 C.3         1 MOL       0.1181
     32 C50        52.0306    3.3338    4.5010 C.ar        1 MOL      -0.0204
     33 C53        52.4624    2.5244    5.5802 C.ar        1 MOL      -0.0587
     34 C54        53.4602    2.9766    6.4638 C.ar        1 MOL      -0.0685
     35 C55        54.0394    4.2445    6.2813 C.ar        1 MOL      -0.0687
     36 C56        53.6235    5.0557    5.2106 C.ar        1 MOL      -0.0685
     37 C57        52.6224    4.6065    4.3297 C.ar        1 MOL      -0.0587
     38 H1         45.6731   10.5491    1.5251 H           1 MOL       0.0516
     39 H2         49.5270    9.4874    0.1790 H           1 MOL       0.0521
     40 H3         49.8306   11.7004   -0.7006 H           1 MOL       0.0585
     41 H4         48.1464   13.3894   -0.3756 H           1 MOL       0.0520
     42 H5         46.6163   16.1057    3.7139 H           1 MOL       0.0780
     43 H6         46.0947   15.0874    5.0682 H           1 MOL       0.0780
     44 H7         46.4575    8.4747    1.8835 H           1 MOL       0.1756
     45 H8         49.3262    8.2004    2.1632 H           1 MOL       0.0548
     46 H9         46.9134    6.9389    3.5773 H           1 MOL       0.0303
     47 H10        47.9274    8.2462    4.1978 H           1 MOL       0.0303
     48 H11        48.5008    6.0002    5.1422 H           1 MOL       0.0479
     49 H12        49.8687    6.7771    4.3485 H           1 MOL       0.0479
     50 H13        49.3592    4.4898    1.3152 H           1 MOL       0.0479
     51 H14        50.4326    5.7877    1.8430 H           1 MOL       0.0479
     52 H15        48.8108    6.7018    0.2538 H           1 MOL       0.0303
     53 H16        47.4605    5.9875    1.1424 H           1 MOL       0.0303
     54 H17        51.2487    3.0702    2.5407 H           1 MOL       0.0682
     55 H18        50.8382    1.7827    3.6608 H           1 MOL       0.0682
     56 H19        52.0484    1.6020    5.7343 H           1 MOL       0.0557
     57 H20        53.7623    2.3823    7.2391 H           1 MOL       0.0599
     58 H21        54.7624    4.5733    6.9232 H           1 MOL       0.0559
     59 H22        54.0473    5.9755    5.0726 H           1 MOL       0.0599
     60 H23        52.3328    5.2119    3.5568 H           1 MOL       0.0557
@<TRIPOS>BOND
     1     1     2   1
     2     1     5   1
     3     2     3   2
     4     2     6   1
     5     3     4   1
     6     3    16   1
     7     4     5   2
     8     4    15   1
     9     5     9   1
    10     6     7  ar
    11     6     8  ar
    12     9    10  ar
    13     9    14  ar
    14    10    11  ar
    15    11    12  ar
    16    11    21   1
    17    12    13  ar
    18    13    14  ar
    19    16    17   1
    20    17    18   1
    21    18    19  ar
    22    18    20  ar
    23    21    22   1
    24    22    23   1
    25    22    27   1
    26    23    24   1
    27    24    25   1
    28    25    26   1
    29    25    28  am
    30    26    27   1
    31    28    29   2
    32    28    30   2
    33    28    31   1
    34    31    32   1
    35    32    33  ar
    36    32    37  ar
    37    33    34  ar
    38    34    35  ar
    39    35    36  ar
    40    36    37  ar
    41    10    38   1
    42    12    39   1
    43    13    40   1
    44    14    41   1
    45    17    42   1
    46    17    43   1
    47    21    44   1
    48    22    45   1
    49    23    46   1
    50    23    47   1
    51    24    48   1
    52    24    49   1
    53    26    50   1
    54    26    51   1
    55    27    52   1
    56    27    53   1
    57    31    54   1
    58    31    55   1
    59    33    56   1
    60    34    57   1
    61    35    58   1
    62    36    59   1
    63    37    60   1
@<TRIPOS>SUBSTRUCTURE
     1  MOL      2

