@<TRIPOS>MOLECULE
2qbp_ligand_011
    60    63
SMALL
GAST_HUCK
****
This file was generated by PARSER (from files_GN.cpp)

@<TRIPOS>ATOM
      1 S1         47.1828   13.9900    3.9020 S.3         1 MOL      -0.0382
      2 C2         45.8090   14.9864    4.1530 C.2         1 MOL       0.0813
      3 C3         44.9123   14.7132    3.1020 C.2         1 MOL       0.1014
      4 C4         45.3774   13.7465    2.1811 C.2         1 MOL       0.0465
      5 C5         46.6529   13.2302    2.4512 C.2         1 MOL       0.0450
      6 C6         45.6713   15.8460    5.2528 C.2         1 MOL       0.0555
      7 O7         44.4578   16.1767    5.7483 O.co2       1 MOL      -0.5699
      8 O8         46.7605   16.3706    5.8649 O.co2       1 MOL      -0.5699
      9 C9         47.4018   12.2914    1.7198 C.ar        1 MOL      -0.0166
     10 C10        47.7220   11.0343    2.2905 C.ar        1 MOL      -0.0362
     11 C11        48.4871   10.0817    1.5788 C.ar        1 MOL       0.0383
     12 C12        48.9829   10.4287    0.3061 C.ar        1 MOL      -0.0440
     13 C13        48.6626   11.6711   -0.2767 C.ar        1 MOL      -0.0722
     14 C14        47.8663   12.5897    0.4227 C.ar        1 MOL      -0.0655
     15 BR19       44.3282   13.1024    0.7748 Br          1 MOL      -0.0668
     16 O20        43.6742   15.2854    2.9991 O.3         1 MOL      -0.3141
     17 C21        43.5942   16.4752    2.1713 C.3         1 MOL       0.1195
     18 C22        43.9886   17.7236    2.8459 C.2         1 MOL       0.0648
     19 O25        44.4923   18.7622    2.1385 O.co2       1 MOL      -0.5663
     20 O26        44.2102   17.7124    4.2037 O.co2       1 MOL      -0.5663
     21 N29        48.7475    8.8217    2.0345 N.pl3       1 MOL      -0.3201
     22 C30        48.3302    8.2287    3.2769 C.3         1 MOL       0.0379
     23 C31        48.2766    6.6860    3.1429 C.3         1 MOL      -0.0135
     24 C32        49.6929    6.0540    3.0612 C.3         1 MOL       0.0314
     25 N33        50.5827    6.5523    4.0843 N.am        1 MOL      -0.2365
     26 C34        50.6738    7.9735    4.3119 C.3         1 MOL       0.0314
     27 C35        49.2681    8.6231    4.4486 C.3         1 MOL      -0.0135
     28 S46        51.7068    5.5025    4.8075 S.o2        1 MOL       0.0512
     29 O47        51.0262    5.0160    6.1596 O.2         1 MOL      -0.1532
     30 O48        52.9988    6.3001    5.2873 O.2         1 MOL      -0.1532
     31 C49        52.2343    4.0278    3.8902 C.3         1 MOL       0.1181
     32 C50        53.5928    4.1227    3.2937 C.ar        1 MOL      -0.0204
     33 C53        53.8455    5.0209    2.2276 C.ar        1 MOL      -0.0587
     34 C54        55.1156    5.0701    1.6225 C.ar        1 MOL      -0.0685
     35 C55        56.1497    4.2323    2.0777 C.ar        1 MOL      -0.0687
     36 C56        55.9174    3.3428    3.1355 C.ar        1 MOL      -0.0685
     37 C57        54.6464    3.2859    3.7400 C.ar        1 MOL      -0.0587
     38 H1         47.3758   10.8149    3.2265 H           1 MOL       0.0516
     39 H2         49.5552    9.7672   -0.2244 H           1 MOL       0.0521
     40 H3         49.0156   11.9008   -1.2110 H           1 MOL       0.0585
     41 H4         47.6524   13.4875   -0.0142 H           1 MOL       0.0520
     42 H5         42.5490   16.6040    1.8893 H           1 MOL       0.0780
     43 H6         44.1462   16.3788    1.2280 H           1 MOL       0.0780
     44 H7         49.1623    8.2166    1.3983 H           1 MOL       0.1756
     45 H8         47.3125    8.5513    3.5073 H           1 MOL       0.0548
     46 H9         47.6947    6.4096    2.2607 H           1 MOL       0.0303
     47 H10        47.7581    6.2743    4.0134 H           1 MOL       0.0303
     48 H11        50.1374    6.2658    2.0846 H           1 MOL       0.0479
     49 H12        49.5580    4.9726    3.1372 H           1 MOL       0.0479
     50 H13        51.2154    8.4323    3.4802 H           1 MOL       0.0479
     51 H14        51.2180    8.2024    5.2314 H           1 MOL       0.0479
     52 H15        48.8163    8.2868    5.3876 H           1 MOL       0.0303
     53 H16        49.3609    9.7097    4.5085 H           1 MOL       0.0303
     54 H17        51.5244    3.8098    3.0917 H           1 MOL       0.0682
     55 H18        52.1852    3.1901    4.5891 H           1 MOL       0.0682
     56 H19        53.1039    5.6317    1.8821 H           1 MOL       0.0557
     57 H20        55.2865    5.7113    0.8494 H           1 MOL       0.0599
     58 H21        57.0734    4.2731    1.6369 H           1 MOL       0.0559
     59 H22        56.6680    2.7278    3.4678 H           1 MOL       0.0599
     60 H23        54.4950    2.6228    4.5044 H           1 MOL       0.0557
@<TRIPOS>BOND
     1     1     2   1
     2     1     5   1
     3     2     3   2
     4     2     6   1
     5     3     4   1
     6     3    16   1
     7     4     5   2
     8     4    15   1
     9     5     9   1
    10     6     7  ar
    11     6     8  ar
    12     9    10  ar
    13     9    14  ar
    14    10    11  ar
    15    11    12  ar
    16    11    21   1
    17    12    13  ar
    18    13    14  ar
    19    16    17   1
    20    17    18   1
    21    18    19  ar
    22    18    20  ar
    23    21    22   1
    24    22    23   1
    25    22    27   1
    26    23    24   1
    27    24    25   1
    28    25    26   1
    29    25    28  am
    30    26    27   1
    31    28    29   2
    32    28    30   2
    33    28    31   1
    34    31    32   1
    35    32    33  ar
    36    32    37  ar
    37    33    34  ar
    38    34    35  ar
    39    35    36  ar
    40    36    37  ar
    41    10    38   1
    42    12    39   1
    43    13    40   1
    44    14    41   1
    45    17    42   1
    46    17    43   1
    47    21    44   1
    48    22    45   1
    49    23    46   1
    50    23    47   1
    51    24    48   1
    52    24    49   1
    53    26    50   1
    54    26    51   1
    55    27    52   1
    56    27    53   1
    57    31    54   1
    58    31    55   1
    59    33    56   1
    60    34    57   1
    61    35    58   1
    62    36    59   1
    63    37    60   1
@<TRIPOS>SUBSTRUCTURE
     1  MOL      2

