@<TRIPOS>MOLECULE
2qbr_ligand_042
    42    44
SMALL
GAST_HUCK
****
This file was generated by PARSER (from files_GN.cpp)

@<TRIPOS>ATOM
      1 S1         44.0716   16.7648    0.6446 S.3         1 MOL      -0.0382
      2 C2         44.4007   16.4487    2.3024 C.2         1 MOL       0.0813
      3 C3         44.8760   15.1308    2.3657 C.2         1 MOL       0.1014
      4 C4         44.8915   14.4444    1.1311 C.2         1 MOL       0.0465
      5 C5         44.4859   15.2128    0.0247 C.2         1 MOL       0.0450
      6 C6         44.2781   17.3803    3.3489 C.2         1 MOL       0.0555
      7 O7         44.3006   18.6997    3.0709 O.co2       1 MOL      -0.5699
      8 O8         44.2923   17.0181    4.6531 O.co2       1 MOL      -0.5699
      9 C9         44.4663   14.8719   -1.3510 C.ar        1 MOL      -0.0166
     10 C10        43.9719   13.6260   -1.8031 C.ar        1 MOL      -0.0360
     11 C11        43.9611   13.2902   -3.1799 C.ar        1 MOL       0.0399
     12 C12        44.4588   14.2357   -4.1034 C.ar        1 MOL      -0.0438
     13 C13        44.9458   15.4791   -3.6719 C.ar        1 MOL      -0.0722
     14 C14        44.9435   15.7985   -2.3063 C.ar        1 MOL      -0.0655
     15 BR19       45.5414   12.7032    1.0116 Br          1 MOL      -0.0668
     16 O20        45.3579   14.6111    3.5337 O.3         1 MOL      -0.3141
     17 C21        46.6016   15.2132    3.9607 C.3         1 MOL       0.1195
     18 C22        46.5991   15.3161    5.4237 C.2         1 MOL       0.0648
     19 O25        47.1304   16.3922    6.0554 O.co2       1 MOL      -0.5663
     20 O26        45.9659   14.3842    6.1708 O.co2       1 MOL      -0.5663
     21 N29        43.4934   12.1301   -3.7109 N.pl3       1 MOL      -0.3119
     22 C30        42.9757   10.9633   -3.0664 C.3         1 MOL       0.0574
     23 C31        41.5832   10.7172   -3.5238 C.ar        1 MOL      -0.0218
     24 C34        41.2299    9.5249   -4.2013 C.ar        1 MOL      -0.0585
     25 C35        39.9083    9.3105   -4.6378 C.ar        1 MOL      -0.0685
     26 C36        38.9193   10.2842   -4.3986 C.ar        1 MOL      -0.0687
     27 C37        39.2528   11.4678   -3.7151 C.ar        1 MOL      -0.0685
     28 C38        40.5752   11.6839   -3.2810 C.ar        1 MOL      -0.0585
     29 H1         43.6065   12.9709   -1.1136 H           1 MOL       0.0516
     30 H2         44.4666   14.0274   -5.1039 H           1 MOL       0.0521
     31 H3         45.3010   16.1507   -4.3549 H           1 MOL       0.0585
     32 H4         45.3124   16.7083   -2.0183 H           1 MOL       0.0520
     33 H5         46.7690   16.2182    3.5481 H           1 MOL       0.0780
     34 H6         47.4327   14.5755    3.6501 H           1 MOL       0.0780
     35 H7         43.5030   12.0832   -4.6812 H           1 MOL       0.1779
     36 H8         42.9695   11.0233   -1.9792 H           1 MOL       0.0675
     37 H9         43.6318   10.1328   -3.3374 H           1 MOL       0.0675
     38 H10        41.9335    8.8038   -4.3910 H           1 MOL       0.0557
     39 H11        39.6633    8.4496   -5.1332 H           1 MOL       0.0599
     40 H12        37.9588   10.1306   -4.7189 H           1 MOL       0.0559
     41 H13        38.5348   12.1772   -3.5406 H           1 MOL       0.0599
     42 H14        40.8020   12.5550   -2.7904 H           1 MOL       0.0557
@<TRIPOS>BOND
     1     1     2   1
     2     1     5   1
     3     2     3   2
     4     2     6   1
     5     3     4   1
     6     3    16   1
     7     4     5   2
     8     4    15   1
     9     5     9   1
    10     6     7  ar
    11     6     8  ar
    12     9    10  ar
    13     9    14  ar
    14    10    11  ar
    15    11    12  ar
    16    11    21   1
    17    12    13  ar
    18    13    14  ar
    19    16    17   1
    20    17    18   1
    21    18    19  ar
    22    18    20  ar
    23    21    22   1
    24    22    23   1
    25    23    24  ar
    26    23    28  ar
    27    24    25  ar
    28    25    26  ar
    29    26    27  ar
    30    27    28  ar
    31    10    29   1
    32    12    30   1
    33    13    31   1
    34    14    32   1
    35    17    33   1
    36    17    34   1
    37    21    35   1
    38    22    36   1
    39    22    37   1
    40    24    38   1
    41    25    39   1
    42    26    40   1
    43    27    41   1
    44    28    42   1
@<TRIPOS>SUBSTRUCTURE
     1  MOL      2

