@<TRIPOS>MOLECULE
2qbr_ligand_039
    42    44
SMALL
GAST_HUCK
****
This file was generated by PARSER (from files_GN.cpp)

@<TRIPOS>ATOM
      1 S1         46.7012   11.6355    3.2307 S.3         1 MOL      -0.0382
      2 C2         46.4152   13.2284    3.8127 C.2         1 MOL       0.0813
      3 C3         45.6841   13.8910    2.8166 C.2         1 MOL       0.1014
      4 C4         45.4063   13.1123    1.6742 C.2         1 MOL       0.0465
      5 C5         45.8737   11.7854    1.7280 C.2         1 MOL       0.0450
      6 C6         46.7884   13.7019    5.0801 C.2         1 MOL       0.0555
      7 O7         48.0865   13.8837    5.3922 O.co2       1 MOL      -0.5699
      8 O8         45.8691   13.9421    6.0394 O.co2       1 MOL      -0.5699
      9 C9         45.6160   10.6960    0.8538 C.ar        1 MOL      -0.0166
     10 C10        46.5961    9.7036    0.5896 C.ar        1 MOL      -0.0360
     11 C11        46.2999    8.5687   -0.2073 C.ar        1 MOL       0.0399
     12 C12        45.0082    8.4492   -0.7624 C.ar        1 MOL      -0.0438
     13 C13        44.0260    9.4209   -0.5111 C.ar        1 MOL      -0.0722
     14 C14        44.3304   10.5288    0.2943 C.ar        1 MOL      -0.0655
     15 BR19       44.5522   13.8684    0.1991 Br          1 MOL      -0.0668
     16 O20        45.1727   15.1484    2.9798 O.3         1 MOL      -0.3141
     17 C21        46.1547   16.1959    3.0300 C.3         1 MOL       0.1195
     18 C22        45.4803   17.4100    3.5031 C.2         1 MOL       0.0648
     19 O25        44.7295   18.1559    2.6631 O.co2       1 MOL      -0.5663
     20 O26        45.4402   17.6932    4.8247 O.co2       1 MOL      -0.5663
     21 N29        47.1664    7.5564   -0.4658 N.pl3       1 MOL      -0.3119
     22 C30        48.4463    7.3288    0.1257 C.3         1 MOL       0.0574
     23 C31        49.1926    6.3345   -0.6883 C.ar        1 MOL      -0.0218
     24 C34        50.4168    6.6590   -1.3245 C.ar        1 MOL      -0.0585
     25 C35        51.0873    5.7117   -2.1227 C.ar        1 MOL      -0.0685
     26 C36        50.5463    4.4243   -2.2908 C.ar        1 MOL      -0.0687
     27 C37        49.3345    4.0853   -1.6612 C.ar        1 MOL      -0.0685
     28 C38        48.6628    5.0340   -0.8675 C.ar        1 MOL      -0.0585
     29 H1         47.5294    9.8020    0.9939 H           1 MOL       0.0516
     30 H2         44.7632    7.6411   -1.3410 H           1 MOL       0.0521
     31 H3         43.0877    9.3143   -0.9012 H           1 MOL       0.0585
     32 H4         43.5823   11.1898    0.5069 H           1 MOL       0.0520
     33 H5         46.5806   16.3715    2.0395 H           1 MOL       0.0780
     34 H6         46.9635   15.9579    3.7253 H           1 MOL       0.0780
     35 H7         46.8710    6.8972   -1.1154 H           1 MOL       0.1779
     36 H8         48.3363    6.9387    1.1425 H           1 MOL       0.0675
     37 H9         48.9807    8.2844    0.1773 H           1 MOL       0.0675
     38 H10        50.8222    7.5889   -1.2183 H           1 MOL       0.0557
     39 H11        51.9702    5.9587   -2.5775 H           1 MOL       0.0599
     40 H12        51.0314    3.7395   -2.8759 H           1 MOL       0.0559
     41 H13        48.9397    3.1507   -1.7827 H           1 MOL       0.0599
     42 H14        47.7782    4.7718   -0.4217 H           1 MOL       0.0557
@<TRIPOS>BOND
     1     1     2   1
     2     1     5   1
     3     2     3   2
     4     2     6   1
     5     3     4   1
     6     3    16   1
     7     4     5   2
     8     4    15   1
     9     5     9   1
    10     6     7  ar
    11     6     8  ar
    12     9    10  ar
    13     9    14  ar
    14    10    11  ar
    15    11    12  ar
    16    11    21   1
    17    12    13  ar
    18    13    14  ar
    19    16    17   1
    20    17    18   1
    21    18    19  ar
    22    18    20  ar
    23    21    22   1
    24    22    23   1
    25    23    24  ar
    26    23    28  ar
    27    24    25  ar
    28    25    26  ar
    29    26    27  ar
    30    27    28  ar
    31    10    29   1
    32    12    30   1
    33    13    31   1
    34    14    32   1
    35    17    33   1
    36    17    34   1
    37    21    35   1
    38    22    36   1
    39    22    37   1
    40    24    38   1
    41    25    39   1
    42    26    40   1
    43    27    41   1
    44    28    42   1
@<TRIPOS>SUBSTRUCTURE
     1  MOL      2

