@<TRIPOS>MOLECULE
2qbr_ligand_019
    42    44
SMALL
GAST_HUCK
****
This file was generated by PARSER (from files_GN.cpp)

@<TRIPOS>ATOM
      1 S1         46.1821   18.1394    2.7417 S.3         1 MOL      -0.0382
      2 C2         47.1256   17.1519    3.7856 C.2         1 MOL       0.0813
      3 C3         47.1680   15.8798    3.2048 C.2         1 MOL       0.1014
      4 C4         46.4098   15.7467    2.0263 C.2         1 MOL       0.0465
      5 C5         45.8162   16.9335    1.5651 C.2         1 MOL       0.0450
      6 C6         47.5948   17.5665    5.0339 C.2         1 MOL       0.0555
      7 O7         46.9619   17.1361    6.1581 O.co2       1 MOL      -0.5699
      8 O8         48.8410   18.0954    5.1680 O.co2       1 MOL      -0.5699
      9 C9         45.0338   17.1417    0.3982 C.ar        1 MOL      -0.0166
     10 C10        45.3678   18.1657   -0.5286 C.ar        1 MOL      -0.0360
     11 C11        44.5856   18.4102   -1.6744 C.ar        1 MOL       0.0399
     12 C12        43.4577   17.5900   -1.9065 C.ar        1 MOL      -0.0438
     13 C13        43.1136   16.5685   -0.9994 C.ar        1 MOL      -0.0722
     14 C14        43.8908   16.3557    0.1451 C.ar        1 MOL      -0.0655
     15 BR19       46.2774   14.0963    1.1554 Br          1 MOL      -0.0668
     16 O20        47.7841   14.7726    3.7154 O.3         1 MOL      -0.3141
     17 C21        47.1802   14.0686    4.8176 C.3         1 MOL       0.1195
     18 C22        45.8756   14.5489    5.3222 C.2         1 MOL       0.0648
     19 O25        45.5643   14.3716    6.6279 O.co2       1 MOL      -0.5663
     20 O26        45.0070   15.3039    4.6109 O.co2       1 MOL      -0.5663
     21 N29        44.9581   19.4556   -2.4646 N.pl3       1 MOL      -0.3119
     22 C30        44.3956   19.8597   -3.7102 C.3         1 MOL       0.0574
     23 C31        44.2366   18.7842   -4.7199 C.ar        1 MOL      -0.0218
     24 C34        42.9807   18.5054   -5.2984 C.ar        1 MOL      -0.0585
     25 C35        42.8315   17.4693   -6.2437 C.ar        1 MOL      -0.0685
     26 C36        43.9517   16.6910   -6.6137 C.ar        1 MOL      -0.0687
     27 C37        45.2016   16.9507   -6.0392 C.ar        1 MOL      -0.0685
     28 C38        45.3540   17.9863   -5.0959 C.ar        1 MOL      -0.0585
     29 H1         46.2022   18.7402   -0.3608 H           1 MOL       0.0516
     30 H2         42.8473   17.7384   -2.7125 H           1 MOL       0.0521
     31 H3         42.2826   15.9968   -1.1706 H           1 MOL       0.0585
     32 H4         43.5990   15.6422    0.8092 H           1 MOL       0.0520
     33 H5         47.8921   14.0294    5.6434 H           1 MOL       0.0780
     34 H6         47.0313   13.0405    4.4733 H           1 MOL       0.0780
     35 H7         45.6594   20.0322   -2.1063 H           1 MOL       0.1779
     36 H8         45.0633   20.6180   -4.1396 H           1 MOL       0.0675
     37 H9         43.4410   20.3643   -3.4976 H           1 MOL       0.0675
     38 H10        42.1579   19.0540   -5.0430 H           1 MOL       0.0557
     39 H11        41.9205   17.2816   -6.6607 H           1 MOL       0.0599
     40 H12        43.8428   15.9399   -7.2951 H           1 MOL       0.0559
     41 H13        46.0137   16.3881   -6.3068 H           1 MOL       0.0599
     42 H14        46.2688   18.1557   -4.6838 H           1 MOL       0.0557
@<TRIPOS>BOND
     1     1     2   1
     2     1     5   1
     3     2     3   2
     4     2     6   1
     5     3     4   1
     6     3    16   1
     7     4     5   2
     8     4    15   1
     9     5     9   1
    10     6     7  ar
    11     6     8  ar
    12     9    10  ar
    13     9    14  ar
    14    10    11  ar
    15    11    12  ar
    16    11    21   1
    17    12    13  ar
    18    13    14  ar
    19    16    17   1
    20    17    18   1
    21    18    19  ar
    22    18    20  ar
    23    21    22   1
    24    22    23   1
    25    23    24  ar
    26    23    28  ar
    27    24    25  ar
    28    25    26  ar
    29    26    27  ar
    30    27    28  ar
    31    10    29   1
    32    12    30   1
    33    13    31   1
    34    14    32   1
    35    17    33   1
    36    17    34   1
    37    21    35   1
    38    22    36   1
    39    22    37   1
    40    24    38   1
    41    25    39   1
    42    26    40   1
    43    27    41   1
    44    28    42   1
@<TRIPOS>SUBSTRUCTURE
     1  MOL      2

