@<TRIPOS>MOLECULE
2qbr_ligand_009
    42    44
SMALL
GAST_HUCK
****
This file was generated by PARSER (from files_GN.cpp)

@<TRIPOS>ATOM
      1 S1         43.9905   15.5952    1.3761 S.3         1 MOL      -0.0382
      2 C2         44.7116   16.1383    2.8298 C.2         1 MOL       0.0813
      3 C3         45.8020   15.3038    3.0688 C.2         1 MOL       0.1014
      4 C4         45.9817   14.2812    2.1162 C.2         1 MOL       0.0465
      5 C5         45.0369   14.2640    1.0655 C.2         1 MOL       0.0450
      6 C6         44.2394   17.2086    3.5941 C.2         1 MOL       0.0555
      7 O7         43.7370   18.3140    2.9836 O.co2       1 MOL      -0.5699
      8 O8         44.3985   17.2394    4.9371 O.co2       1 MOL      -0.5699
      9 C9         44.7749   13.3272    0.0264 C.ar        1 MOL      -0.0166
     10 C10        44.9586   11.9372    0.2239 C.ar        1 MOL      -0.0360
     11 C11        44.4219   10.9762   -0.6638 C.ar        1 MOL       0.0399
     12 C12        43.7117   11.4306   -1.7978 C.ar        1 MOL      -0.0438
     13 C13        43.6010   12.8016   -2.0685 C.ar        1 MOL      -0.0722
     14 C14        44.1251   13.7357   -1.1624 C.ar        1 MOL      -0.0655
     15 BR19       47.4367   13.1186    2.2613 Br          1 MOL      -0.0668
     16 O20        46.6124   15.4800    4.1517 O.3         1 MOL      -0.3141
     17 C21        47.6862   16.4311    3.9441 C.3         1 MOL       0.1195
     18 C22        48.1152   16.9170    5.2609 C.2         1 MOL       0.0648
     19 O25        47.2474   17.6218    6.0235 O.co2       1 MOL      -0.5663
     20 O26        49.4289   17.0039    5.5669 O.co2       1 MOL      -0.5663
     21 N29        44.5669    9.6689   -0.3173 N.pl3       1 MOL      -0.3119
     22 C30        43.7721    8.5669   -0.7492 C.3         1 MOL       0.0574
     23 C31        43.8229    8.1187   -2.1691 C.ar        1 MOL      -0.0218
     24 C34        42.7388    7.3708   -2.6879 C.ar        1 MOL      -0.0585
     25 C35        42.7216    6.9618   -4.0319 C.ar        1 MOL      -0.0685
     26 C36        43.7986    7.2833   -4.8792 C.ar        1 MOL      -0.0687
     27 C37        44.9035    7.9957   -4.3680 C.ar        1 MOL      -0.0685
     28 C38        44.9191    8.4079   -3.0180 C.ar        1 MOL      -0.0585
     29 H1         45.3910   11.6012    1.0829 H           1 MOL       0.0516
     30 H2         43.2824   10.7728   -2.4472 H           1 MOL       0.0521
     31 H3         43.1062   13.1195   -2.9066 H           1 MOL       0.0585
     32 H4         43.9866   14.7265   -1.3678 H           1 MOL       0.0520
     33 H5         47.3706   17.2995    3.3573 H           1 MOL       0.0780
     34 H6         48.5079   15.9382    3.4305 H           1 MOL       0.0780
     35 H7         45.1437    9.4912    0.4405 H           1 MOL       0.1779
     36 H8         42.7362    8.8008   -0.4776 H           1 MOL       0.0675
     37 H9         44.0682    7.7071   -0.1396 H           1 MOL       0.0675
     38 H10        41.9423    7.1264   -2.0908 H           1 MOL       0.0557
     39 H11        41.9263    6.4290   -4.3943 H           1 MOL       0.0599
     40 H12        43.7878    6.9898   -5.8598 H           1 MOL       0.0559
     41 H13        45.6941    8.2106   -4.9781 H           1 MOL       0.0599
     42 H14        45.7317    8.9204   -2.6690 H           1 MOL       0.0557
@<TRIPOS>BOND
     1     1     2   1
     2     1     5   1
     3     2     3   2
     4     2     6   1
     5     3     4   1
     6     3    16   1
     7     4     5   2
     8     4    15   1
     9     5     9   1
    10     6     7  ar
    11     6     8  ar
    12     9    10  ar
    13     9    14  ar
    14    10    11  ar
    15    11    12  ar
    16    11    21   1
    17    12    13  ar
    18    13    14  ar
    19    16    17   1
    20    17    18   1
    21    18    19  ar
    22    18    20  ar
    23    21    22   1
    24    22    23   1
    25    23    24  ar
    26    23    28  ar
    27    24    25  ar
    28    25    26  ar
    29    26    27  ar
    30    27    28  ar
    31    10    29   1
    32    12    30   1
    33    13    31   1
    34    14    32   1
    35    17    33   1
    36    17    34   1
    37    21    35   1
    38    22    36   1
    39    22    37   1
    40    24    38   1
    41    25    39   1
    42    26    40   1
    43    27    41   1
    44    28    42   1
@<TRIPOS>SUBSTRUCTURE
     1  MOL      2

