@<TRIPOS>MOLECULE
2qbr_ligand_029
    42    44
SMALL
GAST_HUCK
****
This file was generated by PARSER (from files_GN.cpp)

@<TRIPOS>ATOM
      1 S1         46.0742   13.6676    0.6432 S.3         1 MOL      -0.0382
      2 C2         46.8864   13.8433    2.1475 C.2         1 MOL       0.0813
      3 C3         46.4775   15.0778    2.6685 C.2         1 MOL       0.1014
      4 C4         45.5542   15.7814    1.8631 C.2         1 MOL       0.0465
      5 C5         45.2048   15.1569    0.6450 C.2         1 MOL       0.0450
      6 C6         47.7727   12.9035    2.6999 C.2         1 MOL       0.0555
      7 O7         48.7096   12.3040    1.9338 O.co2       1 MOL      -0.5699
      8 O8         47.6368   12.4767    3.9761 O.co2       1 MOL      -0.5699
      9 C9         44.3885   15.6035   -0.4416 C.ar        1 MOL      -0.0166
     10 C10        43.5625   14.7016   -1.1646 C.ar        1 MOL      -0.0360
     11 C11        42.8118   15.1172   -2.2935 C.ar        1 MOL       0.0399
     12 C12        42.8484   16.4758   -2.6663 C.ar        1 MOL      -0.0438
     13 C13        43.6600   17.3846   -1.9747 C.ar        1 MOL      -0.0722
     14 C14        44.4399   16.9436   -0.8950 C.ar        1 MOL      -0.0655
     15 BR19       44.8179   17.3654    2.5174 Br          1 MOL      -0.0668
     16 O20        46.9877   15.6164    3.8239 O.3         1 MOL      -0.3141
     17 C21        46.2065   15.4123    5.0174 C.3         1 MOL       0.1195
     18 C22        45.8758   16.7265    5.5912 C.2         1 MOL       0.0648
     19 O25        46.7960   17.4629    6.2575 O.co2       1 MOL      -0.5663
     20 O26        44.6089   17.1923    5.5371 O.co2       1 MOL      -0.5663
     21 N29        42.0706   14.2969   -3.0840 N.pl3       1 MOL      -0.3119
     22 C30        42.3615   12.9666   -3.5158 C.3         1 MOL       0.0574
     23 C31        41.4914   11.9325   -2.9011 C.ar        1 MOL      -0.0218
     24 C34        41.9869   10.6358   -2.6191 C.ar        1 MOL      -0.0585
     25 C35        41.1284    9.6254   -2.1440 C.ar        1 MOL      -0.0685
     26 C36        39.7665    9.9017   -1.9293 C.ar        1 MOL      -0.0687
     27 C37        39.2636   11.1883   -2.1918 C.ar        1 MOL      -0.0685
     28 C38        40.1164   12.1912   -2.6885 C.ar        1 MOL      -0.0585
     29 H1         43.5065   13.7238   -0.8741 H           1 MOL       0.0516
     30 H2         42.3070   16.8136   -3.4674 H           1 MOL       0.0521
     31 H3         43.7059   18.3612   -2.2766 H           1 MOL       0.0585
     32 H4         45.0728   17.6196   -0.4754 H           1 MOL       0.0520
     33 H5         46.7946   14.8427    5.7380 H           1 MOL       0.0780
     34 H6         45.2769   14.8643    4.8323 H           1 MOL       0.0780
     35 H7         41.2690   14.6890   -3.4675 H           1 MOL       0.1779
     36 H8         43.4244   12.7552   -3.3779 H           1 MOL       0.0675
     37 H9         42.1785   12.9351   -4.5901 H           1 MOL       0.0675
     38 H10        42.9712   10.4103   -2.7790 H           1 MOL       0.0557
     39 H11        41.4947    8.6884   -1.9576 H           1 MOL       0.0599
     40 H12        39.1426    9.1714   -1.5799 H           1 MOL       0.0559
     41 H13        38.2724   11.3878   -2.0413 H           1 MOL       0.0599
     42 H14        39.7259   13.1129   -2.9028 H           1 MOL       0.0557
@<TRIPOS>BOND
     1     1     2   1
     2     1     5   1
     3     2     3   2
     4     2     6   1
     5     3     4   1
     6     3    16   1
     7     4     5   2
     8     4    15   1
     9     5     9   1
    10     6     7  ar
    11     6     8  ar
    12     9    10  ar
    13     9    14  ar
    14    10    11  ar
    15    11    12  ar
    16    11    21   1
    17    12    13  ar
    18    13    14  ar
    19    16    17   1
    20    17    18   1
    21    18    19  ar
    22    18    20  ar
    23    21    22   1
    24    22    23   1
    25    23    24  ar
    26    23    28  ar
    27    24    25  ar
    28    25    26  ar
    29    26    27  ar
    30    27    28  ar
    31    10    29   1
    32    12    30   1
    33    13    31   1
    34    14    32   1
    35    17    33   1
    36    17    34   1
    37    21    35   1
    38    22    36   1
    39    22    37   1
    40    24    38   1
    41    25    39   1
    42    26    40   1
    43    27    41   1
    44    28    42   1
@<TRIPOS>SUBSTRUCTURE
     1  MOL      2

