@<TRIPOS>MOLECULE
2qbr_ligand_041
    42    44
SMALL
GAST_HUCK
****
This file was generated by PARSER (from files_GN.cpp)

@<TRIPOS>ATOM
      1 S1         46.7671   14.4697    4.1580 S.3         1 MOL      -0.0382
      2 C2         46.0171   15.7968    3.3590 C.2         1 MOL       0.0813
      3 C3         45.9126   15.4636    2.0003 C.2         1 MOL       0.1014
      4 C4         46.4535   14.2048    1.6706 C.2         1 MOL       0.0465
      5 C5         46.9837   13.4895    2.7543 C.2         1 MOL       0.0450
      6 C6         45.6206   16.9982    3.9633 C.2         1 MOL       0.0555
      7 O7         46.4897   18.0379    3.9800 O.co2       1 MOL      -0.5699
      8 O8         44.5726   17.0020    4.8185 O.co2       1 MOL      -0.5699
      9 C9         47.5211   12.1843    2.7197 C.ar        1 MOL      -0.0166
     10 C10        48.6693   11.8770    1.9510 C.ar        1 MOL      -0.0360
     11 C11        49.1325   10.5428    1.8238 C.ar        1 MOL       0.0399
     12 C12        48.4363    9.5229    2.5162 C.ar        1 MOL      -0.0438
     13 C13        47.3363    9.8288    3.3312 C.ar        1 MOL      -0.0722
     14 C14        46.8713   11.1501    3.4256 C.ar        1 MOL      -0.0655
     15 BR19       46.4054   13.5202   -0.0670 Br          1 MOL      -0.0668
     16 O20        45.3502   16.3026    1.0769 O.3         1 MOL      -0.3141
     17 C21        43.9171   16.1603    0.9107 C.3         1 MOL       0.1195
     18 C22        43.1499   16.4821    2.1231 C.2         1 MOL       0.0648
     19 O25        42.9703   15.5098    3.0541 O.co2       1 MOL      -0.5663
     20 O26        43.1302   17.7633    2.5494 O.co2       1 MOL      -0.5663
     21 N29        50.2172   10.3405    1.0255 N.pl3       1 MOL      -0.3119
     22 C30        50.5465    9.1688    0.2706 C.3         1 MOL       0.0574
     23 C31        51.7371    8.4488    0.7948 C.ar        1 MOL      -0.0218
     24 C34        51.7685    8.0121    2.1428 C.ar        1 MOL      -0.0585
     25 C35        52.8466    7.2387    2.6215 C.ar        1 MOL      -0.0685
     26 C36        53.8927    6.8815    1.7577 C.ar        1 MOL      -0.0687
     27 C37        53.8809    7.3207    0.4246 C.ar        1 MOL      -0.0685
     28 C38        52.8156    8.1069   -0.0540 C.ar        1 MOL      -0.0585
     29 H1         49.1444   12.6308    1.4387 H           1 MOL       0.0516
     30 H2         48.7276    8.5517    2.4549 H           1 MOL       0.0521
     31 H3         46.8654    9.0895    3.8460 H           1 MOL       0.0585
     32 H4         46.0297   11.3453    3.9797 H           1 MOL       0.0520
     33 H5         43.6496   15.1610    0.5536 H           1 MOL       0.0780
     34 H6         43.6133   16.8593    0.1293 H           1 MOL       0.0780
     35 H7         50.7742   11.1177    0.8525 H           1 MOL       0.1779
     36 H8         50.7161    9.5058   -0.7491 H           1 MOL       0.0675
     37 H9         49.7104    8.4631    0.2115 H           1 MOL       0.0675
     38 H10        51.0077    8.2411    2.7805 H           1 MOL       0.0557
     39 H11        52.8590    6.9324    3.5982 H           1 MOL       0.0599
     40 H12        54.6733    6.3219    2.1025 H           1 MOL       0.0559
     41 H13        54.6549    7.0745   -0.2015 H           1 MOL       0.0599
     42 H14        52.8234    8.4063   -1.0295 H           1 MOL       0.0557
@<TRIPOS>BOND
     1     1     2   1
     2     1     5   1
     3     2     3   2
     4     2     6   1
     5     3     4   1
     6     3    16   1
     7     4     5   2
     8     4    15   1
     9     5     9   1
    10     6     7  ar
    11     6     8  ar
    12     9    10  ar
    13     9    14  ar
    14    10    11  ar
    15    11    12  ar
    16    11    21   1
    17    12    13  ar
    18    13    14  ar
    19    16    17   1
    20    17    18   1
    21    18    19  ar
    22    18    20  ar
    23    21    22   1
    24    22    23   1
    25    23    24  ar
    26    23    28  ar
    27    24    25  ar
    28    25    26  ar
    29    26    27  ar
    30    27    28  ar
    31    10    29   1
    32    12    30   1
    33    13    31   1
    34    14    32   1
    35    17    33   1
    36    17    34   1
    37    21    35   1
    38    22    36   1
    39    22    37   1
    40    24    38   1
    41    25    39   1
    42    26    40   1
    43    27    41   1
    44    28    42   1
@<TRIPOS>SUBSTRUCTURE
     1  MOL      2

