@<TRIPOS>MOLECULE
2qbr_ligand_025
    42    44
SMALL
GAST_HUCK
****
This file was generated by PARSER (from files_GN.cpp)

@<TRIPOS>ATOM
      1 S1         45.7097   13.4225    1.0769 S.3         1 MOL      -0.0382
      2 C2         46.3888   13.4842    2.6566 C.2         1 MOL       0.0813
      3 C3         46.4726   14.8445    3.0112 C.2         1 MOL       0.1014
      4 C4         45.9991   15.7289    2.0230 C.2         1 MOL       0.0465
      5 C5         45.5108   15.1149    0.8570 C.2         1 MOL       0.0450
      6 C6         46.7489   12.3850    3.4112 C.2         1 MOL       0.0555
      7 O7         48.0287   12.2091    3.8120 O.co2       1 MOL      -0.5699
      8 O8         45.8886   11.3606    3.6074 O.co2       1 MOL      -0.5699
      9 C9         44.8606   15.6862   -0.2477 C.ar        1 MOL      -0.0166
     10 C10        45.4015   15.5371   -1.5472 C.ar        1 MOL      -0.0360
     11 C11        44.6683   15.9000   -2.6959 C.ar        1 MOL       0.0399
     12 C12        43.3630   16.4296   -2.5280 C.ar        1 MOL      -0.0438
     13 C13        42.8263   16.6465   -1.2392 C.ar        1 MOL      -0.0722
     14 C14        43.5787   16.2818   -0.1029 C.ar        1 MOL      -0.0655
     15 BR19       46.0321   17.5833    2.2244 Br          1 MOL      -0.0668
     16 O20        47.0080   15.2762    4.1913 O.3         1 MOL      -0.3141
     17 C21        46.0696   15.4165    5.2926 C.3         1 MOL       0.1195
     18 C22        45.8321   16.8309    5.5877 C.2         1 MOL       0.0648
     19 O25        46.7429   17.5224    6.3078 O.co2       1 MOL      -0.5663
     20 O26        44.5654   17.2858    5.6029 O.co2       1 MOL      -0.5663
     21 N29        45.0839   15.7177   -3.9668 N.pl3       1 MOL      -0.3119
     22 C30        46.3746   15.9720   -4.6158 C.3         1 MOL       0.0574
     23 C31        47.5861   16.2310   -3.8196 C.ar        1 MOL      -0.0218
     24 C34        48.0911   17.5499   -3.6658 C.ar        1 MOL      -0.0585
     25 C35        49.3156   17.7808   -3.0161 C.ar        1 MOL      -0.0685
     26 C36        50.0650   16.6938   -2.4990 C.ar        1 MOL      -0.0687
     27 C37        49.5831   15.3776   -2.6610 C.ar        1 MOL      -0.0685
     28 C38        48.3687   15.1506   -3.3315 C.ar        1 MOL      -0.0585
     29 H1         46.3009   15.0718   -1.6564 H           1 MOL       0.0516
     30 H2         42.7952   16.6942   -3.3307 H           1 MOL       0.0521
     31 H3         41.8819   17.0128   -1.1290 H           1 MOL       0.0585
     32 H4         43.1552   16.3940    0.8252 H           1 MOL       0.0520
     33 H5         46.5212   14.9431    6.1743 H           1 MOL       0.0780
     34 H6         45.1103   14.9146    5.1186 H           1 MOL       0.0780
     35 H7         44.3625   15.5790   -4.6140 H           1 MOL       0.1779
     36 H8         46.1857   16.8490   -5.2597 H           1 MOL       0.0675
     37 H9         46.5704   15.1386   -5.3114 H           1 MOL       0.0675
     38 H10        47.5615   18.3500   -4.0172 H           1 MOL       0.0557
     39 H11        49.6685   18.7449   -2.8976 H           1 MOL       0.0599
     40 H12        50.9684   16.8590   -2.0592 H           1 MOL       0.0559
     41 H13        50.1456   14.5906   -2.3374 H           1 MOL       0.0599
     42 H14        48.0571   14.1883   -3.4728 H           1 MOL       0.0557
@<TRIPOS>BOND
     1     1     2   1
     2     1     5   1
     3     2     3   2
     4     2     6   1
     5     3     4   1
     6     3    16   1
     7     4     5   2
     8     4    15   1
     9     5     9   1
    10     6     7  ar
    11     6     8  ar
    12     9    10  ar
    13     9    14  ar
    14    10    11  ar
    15    11    12  ar
    16    11    21   1
    17    12    13  ar
    18    13    14  ar
    19    16    17   1
    20    17    18   1
    21    18    19  ar
    22    18    20  ar
    23    21    22   1
    24    22    23   1
    25    23    24  ar
    26    23    28  ar
    27    24    25  ar
    28    25    26  ar
    29    26    27  ar
    30    27    28  ar
    31    10    29   1
    32    12    30   1
    33    13    31   1
    34    14    32   1
    35    17    33   1
    36    17    34   1
    37    21    35   1
    38    22    36   1
    39    22    37   1
    40    24    38   1
    41    25    39   1
    42    26    40   1
    43    27    41   1
    44    28    42   1
@<TRIPOS>SUBSTRUCTURE
     1  MOL      2

