@<TRIPOS>MOLECULE
2qbr_ligand_017
    42    44
SMALL
GAST_HUCK
****
This file was generated by PARSER (from files_GN.cpp)

@<TRIPOS>ATOM
      1 S1         44.8230   14.2315    0.5235 S.3         1 MOL      -0.0382
      2 C2         45.2852   15.5225    1.5674 C.2         1 MOL       0.0813
      3 C3         46.1505   14.9792    2.5365 C.2         1 MOL       0.1014
      4 C4         46.3854   13.5929    2.3888 C.2         1 MOL       0.0465
      5 C5         45.7110   12.9971    1.3153 C.2         1 MOL       0.0450
      6 C6         44.8802   16.8671    1.3754 C.2         1 MOL       0.0555
      7 O7         44.2727   17.5686    2.3646 O.co2       1 MOL      -0.5699
      8 O8         45.0055   17.4646    0.1611 O.co2       1 MOL      -0.5699
      9 C9         45.6944   11.6638    0.8833 C.ar        1 MOL      -0.0166
     10 C10        46.6342   11.1744   -0.0631 C.ar        1 MOL      -0.0360
     11 C11        46.5268    9.8643   -0.5859 C.ar        1 MOL       0.0399
     12 C12        45.4343    9.0626   -0.1782 C.ar        1 MOL      -0.0438
     13 C13        44.5336    9.5277    0.8114 C.ar        1 MOL      -0.0722
     14 C14        44.6706   10.8109    1.3450 C.ar        1 MOL      -0.0655
     15 BR19       47.5300   12.6371    3.4949 Br          1 MOL      -0.0668
     16 O20        46.7058   15.7786    3.5013 O.3         1 MOL      -0.3141
     17 C21        46.2837   15.5562    4.8643 C.3         1 MOL       0.1195
     18 C22        45.9053   16.8594    5.4322 C.2         1 MOL       0.0648
     19 O25        46.7634   17.5351    6.2319 O.co2       1 MOL      -0.5663
     20 O26        44.5937   17.1875    5.5199 O.co2       1 MOL      -0.5663
     21 N29        47.3959    9.2725   -1.4618 N.pl3       1 MOL      -0.3119
     22 C30        48.7749    9.5856   -1.6761 C.3         1 MOL       0.0574
     23 C31        48.9404    9.9246   -3.1094 C.ar        1 MOL      -0.0218
     24 C34        49.1158    8.8984   -4.0693 C.ar        1 MOL      -0.0585
     25 C35        49.3048    9.2044   -5.4338 C.ar        1 MOL      -0.0685
     26 C36        49.3265   10.5497   -5.8533 C.ar        1 MOL      -0.0687
     27 C37        49.1825   11.5842   -4.9098 C.ar        1 MOL      -0.0685
     28 C38        48.9779   11.2717   -3.5444 C.ar        1 MOL      -0.0585
     29 H1         47.3603   11.8112   -0.3967 H           1 MOL       0.0516
     30 H2         45.3037    8.1159   -0.5530 H           1 MOL       0.0521
     31 H3         43.7598    8.9220    1.1064 H           1 MOL       0.0585
     32 H4         44.0033   11.1312    2.0521 H           1 MOL       0.0520
     33 H5         47.1369   15.1451    5.4106 H           1 MOL       0.0780
     34 H6         45.4532   14.8482    4.9760 H           1 MOL       0.0780
     35 H7         47.0669    8.4709   -1.9101 H           1 MOL       0.1779
     36 H8         49.3351    8.6662   -1.4497 H           1 MOL       0.0675
     37 H9         49.1871   10.3896   -1.0465 H           1 MOL       0.0675
     38 H10        49.0963    7.9174   -3.7927 H           1 MOL       0.0557
     39 H11        49.4273    8.4528   -6.1218 H           1 MOL       0.0599
     40 H12        49.5081   10.7772   -6.8406 H           1 MOL       0.0559
     41 H13        49.2129   12.5670   -5.2190 H           1 MOL       0.0599
     42 H14        48.8674   12.0356   -2.8828 H           1 MOL       0.0557
@<TRIPOS>BOND
     1     1     2   1
     2     1     5   1
     3     2     3   2
     4     2     6   1
     5     3     4   1
     6     3    16   1
     7     4     5   2
     8     4    15   1
     9     5     9   1
    10     6     7  ar
    11     6     8  ar
    12     9    10  ar
    13     9    14  ar
    14    10    11  ar
    15    11    12  ar
    16    11    21   1
    17    12    13  ar
    18    13    14  ar
    19    16    17   1
    20    17    18   1
    21    18    19  ar
    22    18    20  ar
    23    21    22   1
    24    22    23   1
    25    23    24  ar
    26    23    28  ar
    27    24    25  ar
    28    25    26  ar
    29    26    27  ar
    30    27    28  ar
    31    10    29   1
    32    12    30   1
    33    13    31   1
    34    14    32   1
    35    17    33   1
    36    17    34   1
    37    21    35   1
    38    22    36   1
    39    22    37   1
    40    24    38   1
    41    25    39   1
    42    26    40   1
    43    27    41   1
    44    28    42   1
@<TRIPOS>SUBSTRUCTURE
     1  MOL      2

