@<TRIPOS>MOLECULE
2qbr_ligand_028
    42    44
SMALL
GAST_HUCK
****
This file was generated by PARSER (from files_GN.cpp)

@<TRIPOS>ATOM
      1 S1         47.4164   13.9378    4.2389 S.3         1 MOL      -0.0382
      2 C2         47.3186   15.6297    3.9879 C.2         1 MOL       0.0813
      3 C3         46.7115   15.8050    2.7374 C.2         1 MOL       0.1014
      4 C4         46.4040   14.6116    2.0461 C.2         1 MOL       0.0465
      5 C5         46.7370   13.4242    2.7399 C.2         1 MOL       0.0450
      6 C6         47.7069   16.6202    4.8991 C.2         1 MOL       0.0555
      7 O7         48.3556   17.7378    4.4861 O.co2       1 MOL      -0.5699
      8 O8         47.2705   16.5754    6.1793 O.co2       1 MOL      -0.5699
      9 C9         46.5874   12.0527    2.3689 C.ar        1 MOL      -0.0166
     10 C10        45.5078   11.6020    1.5690 C.ar        1 MOL      -0.0360
     11 C11        45.3582   10.2457    1.1943 C.ar        1 MOL       0.0399
     12 C12        46.3212    9.3166    1.6537 C.ar        1 MOL      -0.0438
     13 C13        47.3855    9.7287    2.4691 C.ar        1 MOL      -0.0722
     14 C14        47.5170   11.0822    2.8211 C.ar        1 MOL      -0.0655
     15 BR19       45.6374   14.7095    0.3491 Br          1 MOL      -0.0668
     16 O20        46.3438   17.0574    2.3200 O.3         1 MOL      -0.3141
     17 C21        44.9953   17.4860    2.6126 C.3         1 MOL       0.1195
     18 C22        44.2033   16.7835    3.6457 C.2         1 MOL       0.0648
     19 O25        43.8128   15.5074    3.4334 O.co2       1 MOL      -0.5663
     20 O26        44.0987   17.2798    4.8981 O.co2       1 MOL      -0.5663
     21 N29        44.2921    9.9299    0.4095 N.pl3       1 MOL      -0.3119
     22 C30        43.8474    8.6313   -0.0064 C.3         1 MOL       0.0574
     23 C31        44.1810    8.2748   -1.4147 C.ar        1 MOL      -0.0218
     24 C34        45.4821    8.4710   -1.9378 C.ar        1 MOL      -0.0585
     25 C35        45.7937    8.1001   -3.2586 C.ar        1 MOL      -0.0685
     26 C36        44.8203    7.4844   -4.0662 C.ar        1 MOL      -0.0687
     27 C37        43.5367    7.2399   -3.5491 C.ar        1 MOL      -0.0685
     28 C38        43.2185    7.6394   -2.2370 C.ar        1 MOL      -0.0585
     29 H1         44.7848   12.2594    1.2851 H           1 MOL       0.0516
     30 H2         46.2742    8.3271    1.3935 H           1 MOL       0.0521
     31 H3         48.0687    9.0422    2.8029 H           1 MOL       0.0585
     32 H4         48.3184   11.3471    3.3965 H           1 MOL       0.0520
     33 H5         44.4243   17.4552    1.6832 H           1 MOL       0.0780
     34 H6         45.0582   18.5367    2.9068 H           1 MOL       0.0780
     35 H7         43.7369   10.6728    0.1259 H           1 MOL       0.1779
     36 H8         42.7656    8.6378    0.1283 H           1 MOL       0.0675
     37 H9         44.2259    7.8439    0.6431 H           1 MOL       0.0675
     38 H10        46.2123    8.8898   -1.3617 H           1 MOL       0.0557
     39 H11        46.7307    8.2642   -3.6312 H           1 MOL       0.0599
     40 H12        45.0466    7.2018   -5.0229 H           1 MOL       0.0559
     41 H13        42.8316    6.7722   -4.1275 H           1 MOL       0.0599
     42 H14        42.2774    7.4403   -1.8819 H           1 MOL       0.0557
@<TRIPOS>BOND
     1     1     2   1
     2     1     5   1
     3     2     3   2
     4     2     6   1
     5     3     4   1
     6     3    16   1
     7     4     5   2
     8     4    15   1
     9     5     9   1
    10     6     7  ar
    11     6     8  ar
    12     9    10  ar
    13     9    14  ar
    14    10    11  ar
    15    11    12  ar
    16    11    21   1
    17    12    13  ar
    18    13    14  ar
    19    16    17   1
    20    17    18   1
    21    18    19  ar
    22    18    20  ar
    23    21    22   1
    24    22    23   1
    25    23    24  ar
    26    23    28  ar
    27    24    25  ar
    28    25    26  ar
    29    26    27  ar
    30    27    28  ar
    31    10    29   1
    32    12    30   1
    33    13    31   1
    34    14    32   1
    35    17    33   1
    36    17    34   1
    37    21    35   1
    38    22    36   1
    39    22    37   1
    40    24    38   1
    41    25    39   1
    42    26    40   1
    43    27    41   1
    44    28    42   1
@<TRIPOS>SUBSTRUCTURE
     1  MOL      2

