@<TRIPOS>MOLECULE
2qbr_ligand_014
    42    44
SMALL
GAST_HUCK
****
This file was generated by PARSER (from files_GN.cpp)

@<TRIPOS>ATOM
      1 S1         44.3619   14.7206    0.6780 S.3         1 MOL      -0.0382
      2 C2         45.1432   15.7645    1.7885 C.2         1 MOL       0.0813
      3 C3         45.9409   14.9579    2.6048 C.2         1 MOL       0.1014
      4 C4         45.9211   13.5847    2.2649 C.2         1 MOL       0.0465
      5 C5         45.0476   13.2321    1.2110 C.2         1 MOL       0.0450
      6 C6         44.9473   17.1472    1.8219 C.2         1 MOL       0.0555
      7 O7         45.3964   17.9021    0.7926 O.co2       1 MOL      -0.5699
      8 O8         43.8746   17.6232    2.5034 O.co2       1 MOL      -0.5699
      9 C9         44.6817   11.9657    0.6532 C.ar        1 MOL      -0.0166
     10 C10        44.4156   11.8289   -0.7374 C.ar        1 MOL      -0.0360
     11 C11        43.9078   10.6359   -1.3006 C.ar        1 MOL       0.0399
     12 C12        43.7379    9.5153   -0.4526 C.ar        1 MOL      -0.0438
     13 C13        44.0335    9.6101    0.9153 C.ar        1 MOL      -0.0722
     14 C14        44.4673   10.8275    1.4661 C.ar        1 MOL      -0.0655
     15 BR19       47.1238   12.4262    3.0924 Br          1 MOL      -0.0668
     16 O20        46.7494   15.4875    3.5790 O.3         1 MOL      -0.3141
     17 C21        46.2226   15.4586    4.9241 C.3         1 MOL       0.1195
     18 C22        45.8854   16.8236    5.3577 C.2         1 MOL       0.0648
     19 O25        44.5909   17.2100    5.4246 O.co2       1 MOL      -0.5663
     20 O26        46.7719   17.5260    6.1012 O.co2       1 MOL      -0.5663
     21 N29        43.5662   10.6832   -2.6192 N.pl3       1 MOL      -0.3119
     22 C30        42.5275    9.9938   -3.3188 C.3         1 MOL       0.0574
     23 C31        41.3578   10.9028   -3.4145 C.ar        1 MOL      -0.0218
     24 C34        41.3472   11.9491   -4.3661 C.ar        1 MOL      -0.0585
     25 C35        40.2626   12.8416   -4.4420 C.ar        1 MOL      -0.0685
     26 C36        39.1751   12.7049   -3.5602 C.ar        1 MOL      -0.0687
     27 C37        39.1772   11.6750   -2.6033 C.ar        1 MOL      -0.0685
     28 C38        40.2601   10.7810   -2.5252 C.ar        1 MOL      -0.0585
     29 H1         44.5505   12.6313   -1.3576 H           1 MOL       0.0516
     30 H2         43.3955    8.6236   -0.8092 H           1 MOL       0.0521
     31 H3         43.8828    8.7991    1.5207 H           1 MOL       0.0585
     32 H4         44.5776   10.8756    2.4782 H           1 MOL       0.0520
     33 H5         47.0096   15.0640    5.5686 H           1 MOL       0.0780
     34 H6         45.3514   14.8090    5.0496 H           1 MOL       0.0780
     35 H7         44.0321   11.3544   -3.1470 H           1 MOL       0.1779
     36 H8         42.2417    9.0525   -2.8468 H           1 MOL       0.0675
     37 H9         42.8884    9.7421   -4.3196 H           1 MOL       0.0675
     38 H10        42.1378   12.0722   -5.0018 H           1 MOL       0.0557
     39 H11        40.2681   13.5961   -5.1293 H           1 MOL       0.0599
     40 H12        38.3915   13.3580   -3.6079 H           1 MOL       0.0559
     41 H13        38.3894   11.5795   -1.9608 H           1 MOL       0.0599
     42 H14        40.2499   10.0513   -1.8065 H           1 MOL       0.0557
@<TRIPOS>BOND
     1     1     2   1
     2     1     5   1
     3     2     3   2
     4     2     6   1
     5     3     4   1
     6     3    16   1
     7     4     5   2
     8     4    15   1
     9     5     9   1
    10     6     7  ar
    11     6     8  ar
    12     9    10  ar
    13     9    14  ar
    14    10    11  ar
    15    11    12  ar
    16    11    21   1
    17    12    13  ar
    18    13    14  ar
    19    16    17   1
    20    17    18   1
    21    18    19  ar
    22    18    20  ar
    23    21    22   1
    24    22    23   1
    25    23    24  ar
    26    23    28  ar
    27    24    25  ar
    28    25    26  ar
    29    26    27  ar
    30    27    28  ar
    31    10    29   1
    32    12    30   1
    33    13    31   1
    34    14    32   1
    35    17    33   1
    36    17    34   1
    37    21    35   1
    38    22    36   1
    39    22    37   1
    40    24    38   1
    41    25    39   1
    42    26    40   1
    43    27    41   1
    44    28    42   1
@<TRIPOS>SUBSTRUCTURE
     1  MOL      2

