@<TRIPOS>MOLECULE
2qbr_ligand_027
    42    44
SMALL
GAST_HUCK
****
This file was generated by PARSER (from files_GN.cpp)

@<TRIPOS>ATOM
      1 S1         46.2711   12.2934    1.4458 S.3         1 MOL      -0.0382
      2 C2         46.5645   13.2282    2.8545 C.2         1 MOL       0.0813
      3 C3         45.8532   14.4387    2.6979 C.2         1 MOL       0.1014
      4 C4         45.1418   14.5180    1.4761 C.2         1 MOL       0.0465
      5 C5         45.2284   13.3933    0.6380 C.2         1 MOL       0.0450
      6 C6         47.3312   12.6996    3.9016 C.2         1 MOL       0.0555
      7 O7         48.2671   11.7545    3.6417 O.co2       1 MOL      -0.5699
      8 O8         46.8059   12.6976    5.1437 O.co2       1 MOL      -0.5699
      9 C9         44.5995   13.0896   -0.5963 C.ar        1 MOL      -0.0166
     10 C10        44.0372   11.8062   -0.7918 C.ar        1 MOL      -0.0360
     11 C11        43.4991   11.4002   -2.0342 C.ar        1 MOL       0.0399
     12 C12        43.4665   12.3434   -3.0851 C.ar        1 MOL      -0.0438
     13 C13        43.9881   13.6366   -2.9051 C.ar        1 MOL      -0.0722
     14 C14        44.5623   14.0045   -1.6746 C.ar        1 MOL      -0.0655
     15 BR19       44.0801   15.9952    1.0596 Br          1 MOL      -0.0668
     16 O20        45.8207   15.5626    3.4948 O.3         1 MOL      -0.3141
     17 C21        46.1380   15.5369    4.8941 C.3         1 MOL       0.1195
     18 C22        45.8530   16.8598    5.4648 C.2         1 MOL       0.0648
     19 O25        46.7840   17.5092    6.1985 O.co2       1 MOL      -0.5663
     20 O26        44.5751   17.2906    5.5396 O.co2       1 MOL      -0.5663
     21 N29        43.0473   10.1412   -2.2956 N.pl3       1 MOL      -0.3119
     22 C30        43.0454    8.9975   -1.4252 C.3         1 MOL       0.0574
     23 C31        44.3943    8.6107   -0.9238 C.ar        1 MOL      -0.0218
     24 C34        45.4725    8.4476   -1.8254 C.ar        1 MOL      -0.0585
     25 C35        46.7668    8.1579   -1.3548 C.ar        1 MOL      -0.0685
     26 C36        46.9981    8.0102    0.0238 C.ar        1 MOL      -0.0687
     27 C37        45.9333    8.1444    0.9311 C.ar        1 MOL      -0.0685
     28 C38        44.6392    8.4373    0.4607 C.ar        1 MOL      -0.0585
     29 H1         44.0181   11.1532   -0.0082 H           1 MOL       0.0516
     30 H2         43.0816   12.0861   -3.9976 H           1 MOL       0.0521
     31 H3         43.9730   14.3037   -3.6832 H           1 MOL       0.0585
     32 H4         44.9808   14.9333   -1.5844 H           1 MOL       0.0520
     33 H5         47.1954   15.3044    5.0267 H           1 MOL       0.0780
     34 H6         45.5270   14.7969    5.4120 H           1 MOL       0.0780
     35 H7         42.7136    9.9841   -3.1924 H           1 MOL       0.1779
     36 H8         42.6419    8.1538   -1.9877 H           1 MOL       0.0675
     37 H9         42.3498    9.1929   -0.6033 H           1 MOL       0.0675
     38 H10        45.3265    8.5654   -2.8315 H           1 MOL       0.0557
     39 H11        47.5424    8.0621   -2.0153 H           1 MOL       0.0599
     40 H12        47.9395    7.8036    0.3666 H           1 MOL       0.0559
     41 H13        46.1007    8.0293    1.9336 H           1 MOL       0.0599
     42 H14        43.8794    8.5350    1.1393 H           1 MOL       0.0557
@<TRIPOS>BOND
     1     1     2   1
     2     1     5   1
     3     2     3   2
     4     2     6   1
     5     3     4   1
     6     3    16   1
     7     4     5   2
     8     4    15   1
     9     5     9   1
    10     6     7  ar
    11     6     8  ar
    12     9    10  ar
    13     9    14  ar
    14    10    11  ar
    15    11    12  ar
    16    11    21   1
    17    12    13  ar
    18    13    14  ar
    19    16    17   1
    20    17    18   1
    21    18    19  ar
    22    18    20  ar
    23    21    22   1
    24    22    23   1
    25    23    24  ar
    26    23    28  ar
    27    24    25  ar
    28    25    26  ar
    29    26    27  ar
    30    27    28  ar
    31    10    29   1
    32    12    30   1
    33    13    31   1
    34    14    32   1
    35    17    33   1
    36    17    34   1
    37    21    35   1
    38    22    36   1
    39    22    37   1
    40    24    38   1
    41    25    39   1
    42    26    40   1
    43    27    41   1
    44    28    42   1
@<TRIPOS>SUBSTRUCTURE
     1  MOL      2

