@<TRIPOS>MOLECULE
2qbr_ligand_013
    42    44
SMALL
GAST_HUCK
****
This file was generated by PARSER (from files_GN.cpp)

@<TRIPOS>ATOM
      1 S1         44.2033   15.7844    1.8038 S.3         1 MOL      -0.0382
      2 C2         45.2999   16.1164    3.0805 C.2         1 MOL       0.0813
      3 C3         46.3252   15.1643    2.9928 C.2         1 MOL       0.1014
      4 C4         46.1590   14.2230    1.9504 C.2         1 MOL       0.0465
      5 C5         45.0198   14.4168    1.1446 C.2         1 MOL       0.0450
      6 C6         45.1992   17.2069    3.9471 C.2         1 MOL       0.0555
      7 O7         44.3041   17.1986    4.9603 O.co2       1 MOL      -0.5699
      8 O8         45.6815   18.4007    3.5407 O.co2       1 MOL      -0.5699
      9 C9         44.5315   13.6759    0.0327 C.ar        1 MOL      -0.0166
     10 C10        43.9060   14.3372   -1.0499 C.ar        1 MOL      -0.0360
     11 C11        43.2029   13.6301   -2.0473 C.ar        1 MOL       0.0399
     12 C12        43.2165   12.2163   -2.0188 C.ar        1 MOL      -0.0438
     13 C13        43.9092   11.5376   -1.0035 C.ar        1 MOL      -0.0722
     14 C14        44.5337   12.2634    0.0295 C.ar        1 MOL      -0.0655
     15 BR19       47.4503   12.9088    1.6458 Br          1 MOL      -0.0668
     16 O20        47.3719   15.0628    3.8697 O.3         1 MOL      -0.3141
     17 C21        48.3018   16.1650    3.9299 C.3         1 MOL       0.1195
     18 C22        48.1800   16.8866    5.2065 C.2         1 MOL       0.0648
     19 O25        47.2998   16.5017    6.1580 O.co2       1 MOL      -0.5663
     20 O26        49.0383   17.8890    5.4957 O.co2       1 MOL      -0.5663
     21 N29        42.4861   14.3820   -2.9224 N.pl3       1 MOL      -0.3119
     22 C30        41.1499   14.1156   -3.3507 C.3         1 MOL       0.0574
     23 C31        40.2314   14.8449   -2.4347 C.ar        1 MOL      -0.0218
     24 C34        39.3147   14.1566   -1.6045 C.ar        1 MOL      -0.0585
     25 C35        38.5222   14.8548   -0.6739 C.ar        1 MOL      -0.0685
     26 C36        38.6295   16.2544   -0.5665 C.ar        1 MOL      -0.0687
     27 C37        39.5159   16.9564   -1.3986 C.ar        1 MOL      -0.0685
     28 C38        40.3082   16.2566   -2.3269 C.ar        1 MOL      -0.0585
     29 H1         43.8875   15.3596   -1.0655 H           1 MOL       0.0516
     30 H2         42.7461   11.6758   -2.7493 H           1 MOL       0.0521
     31 H3         43.9105   10.5149   -0.9863 H           1 MOL       0.0585
     32 H4         44.9467   11.7368    0.7991 H           1 MOL       0.0520
     33 H5         48.2028   16.8749    3.1012 H           1 MOL       0.0780
     34 H6         49.3097   15.7504    3.8814 H           1 MOL       0.0780
     35 H7         42.7216   15.3304   -2.9458 H           1 MOL       0.1779
     36 H8         40.9317   13.0467   -3.3736 H           1 MOL       0.0675
     37 H9         41.0155   14.4965   -4.3613 H           1 MOL       0.0675
     38 H10        39.2336   13.1375   -1.6571 H           1 MOL       0.0557
     39 H11        37.8655   14.3464   -0.0790 H           1 MOL       0.0599
     40 H12        38.0569   16.7614    0.1113 H           1 MOL       0.0559
     41 H13        39.5822   17.9759   -1.3344 H           1 MOL       0.0599
     42 H14        40.9629   16.7827   -2.9099 H           1 MOL       0.0557
@<TRIPOS>BOND
     1     1     2   1
     2     1     5   1
     3     2     3   2
     4     2     6   1
     5     3     4   1
     6     3    16   1
     7     4     5   2
     8     4    15   1
     9     5     9   1
    10     6     7  ar
    11     6     8  ar
    12     9    10  ar
    13     9    14  ar
    14    10    11  ar
    15    11    12  ar
    16    11    21   1
    17    12    13  ar
    18    13    14  ar
    19    16    17   1
    20    17    18   1
    21    18    19  ar
    22    18    20  ar
    23    21    22   1
    24    22    23   1
    25    23    24  ar
    26    23    28  ar
    27    24    25  ar
    28    25    26  ar
    29    26    27  ar
    30    27    28  ar
    31    10    29   1
    32    12    30   1
    33    13    31   1
    34    14    32   1
    35    17    33   1
    36    17    34   1
    37    21    35   1
    38    22    36   1
    39    22    37   1
    40    24    38   1
    41    25    39   1
    42    26    40   1
    43    27    41   1
    44    28    42   1
@<TRIPOS>SUBSTRUCTURE
     1  MOL      2

