@<TRIPOS>MOLECULE
2qbr_ligand_026
    42    44
SMALL
GAST_HUCK
****
This file was generated by PARSER (from files_GN.cpp)

@<TRIPOS>ATOM
      1 S1         44.8675   17.2938    2.7598 S.3         1 MOL      -0.0382
      2 C2         45.4354   16.1523    3.9165 C.2         1 MOL       0.0813
      3 C3         45.6423   14.9531    3.2186 C.2         1 MOL       0.1014
      4 C4         45.2928   14.9932    1.8521 C.2         1 MOL       0.0465
      5 C5         44.8357   16.2483    1.3947 C.2         1 MOL       0.0450
      6 C6         45.6533   16.4156    5.2839 C.2         1 MOL       0.0555
      7 O7         46.0756   15.4527    6.1344 O.co2       1 MOL      -0.5699
      8 O8         45.5204   17.6707    5.7755 O.co2       1 MOL      -0.5699
      9 C9         44.4615   16.6319    0.0855 C.ar        1 MOL      -0.0166
     10 C10        44.9691   17.8202   -0.4906 C.ar        1 MOL      -0.0360
     11 C11        44.6636   18.1886   -1.8223 C.ar        1 MOL       0.0399
     12 C12        43.7563   17.3818   -2.5509 C.ar        1 MOL      -0.0438
     13 C13        43.2126   16.2208   -1.9799 C.ar        1 MOL      -0.0722
     14 C14        43.5768   15.8384   -0.6790 C.ar        1 MOL      -0.0655
     15 BR19       45.5727   13.5230    0.7364 Br          1 MOL      -0.0668
     16 O20        46.1343   13.8230    3.8126 O.3         1 MOL      -0.3141
     17 C21        47.5702   13.7189    3.8568 C.3         1 MOL       0.1195
     18 C22        47.9955   12.5890    3.0168 C.2         1 MOL       0.0648
     19 O25        47.6972   11.3190    3.3783 O.co2       1 MOL      -0.5663
     20 O26        48.7335   12.7878    1.8993 O.co2       1 MOL      -0.5663
     21 N29        45.3330   19.2619   -2.3283 N.pl3       1 MOL      -0.3119
     22 C30        45.6293   19.5409   -3.7017 C.3         1 MOL       0.0574
     23 C31        47.0991   19.5960   -3.9310 C.ar        1 MOL      -0.0218
     24 C34        48.0039   18.7713   -3.2157 C.ar        1 MOL      -0.0585
     25 C35        49.3929   18.8675   -3.4374 C.ar        1 MOL      -0.0685
     26 C36        49.8932   19.7615   -4.4024 C.ar        1 MOL      -0.0687
     27 C37        49.0056   20.5463   -5.1568 C.ar        1 MOL      -0.0685
     28 C38        47.6208   20.4589   -4.9228 C.ar        1 MOL      -0.0585
     29 H1         45.6179   18.4028    0.0463 H           1 MOL       0.0516
     30 H2         43.4697   17.6313   -3.5002 H           1 MOL       0.0521
     31 H3         42.5654   15.6436   -2.5197 H           1 MOL       0.0585
     32 H4         43.1723   14.9858   -0.2882 H           1 MOL       0.0520
     33 H5         47.8577   13.4948    4.8866 H           1 MOL       0.0780
     34 H6         48.0998   14.6245    3.5482 H           1 MOL       0.0780
     35 H7         45.8176   19.8063   -1.6867 H           1 MOL       0.1779
     36 H8         45.1587   20.5010   -3.9397 H           1 MOL       0.0675
     37 H9         45.2173   18.8060   -4.3974 H           1 MOL       0.0675
     38 H10        47.6595   18.1049   -2.5261 H           1 MOL       0.0557
     39 H11        50.0451   18.2873   -2.8940 H           1 MOL       0.0599
     40 H12        50.8979   19.8336   -4.5609 H           1 MOL       0.0559
     41 H13        49.3608   21.1825   -5.8689 H           1 MOL       0.0599
     42 H14        46.9875   21.0378   -5.4836 H           1 MOL       0.0557
@<TRIPOS>BOND
     1     1     2   1
     2     1     5   1
     3     2     3   2
     4     2     6   1
     5     3     4   1
     6     3    16   1
     7     4     5   2
     8     4    15   1
     9     5     9   1
    10     6     7  ar
    11     6     8  ar
    12     9    10  ar
    13     9    14  ar
    14    10    11  ar
    15    11    12  ar
    16    11    21   1
    17    12    13  ar
    18    13    14  ar
    19    16    17   1
    20    17    18   1
    21    18    19  ar
    22    18    20  ar
    23    21    22   1
    24    22    23   1
    25    23    24  ar
    26    23    28  ar
    27    24    25  ar
    28    25    26  ar
    29    26    27  ar
    30    27    28  ar
    31    10    29   1
    32    12    30   1
    33    13    31   1
    34    14    32   1
    35    17    33   1
    36    17    34   1
    37    21    35   1
    38    22    36   1
    39    22    37   1
    40    24    38   1
    41    25    39   1
    42    26    40   1
    43    27    41   1
    44    28    42   1
@<TRIPOS>SUBSTRUCTURE
     1  MOL      2

