@<TRIPOS>MOLECULE
2qbr_ligand_024
    42    44
SMALL
GAST_HUCK
****
This file was generated by PARSER (from files_GN.cpp)

@<TRIPOS>ATOM
      1 S1         44.8384   17.1655    2.9190 S.3         1 MOL      -0.0382
      2 C2         45.4340   16.0392    4.0759 C.2         1 MOL       0.0813
      3 C3         45.6532   14.8338    3.3873 C.2         1 MOL       0.1014
      4 C4         45.2925   14.8638    2.0206 C.2         1 MOL       0.0465
      5 C5         44.8237   16.1075    1.5623 C.2         1 MOL       0.0450
      6 C6         45.6598   16.3358    5.4295 C.2         1 MOL       0.0555
      7 O7         46.0462   15.3773    6.3072 O.co2       1 MOL      -0.5699
      8 O8         45.5429   17.6017    5.8828 O.co2       1 MOL      -0.5699
      9 C9         44.4761   16.4946    0.2426 C.ar        1 MOL      -0.0166
     10 C10        45.0354   17.6678   -0.3283 C.ar        1 MOL      -0.0360
     11 C11        44.8781   17.9681   -1.6963 C.ar        1 MOL       0.0399
     12 C12        44.0562   17.1211   -2.4809 C.ar        1 MOL      -0.0438
     13 C13        43.4025   16.0215   -1.9035 C.ar        1 MOL      -0.0722
     14 C14        43.6322   15.6946   -0.5560 C.ar        1 MOL      -0.0655
     15 BR19       45.5099   13.3764    0.9176 Br          1 MOL      -0.0668
     16 O20        46.1618   13.7116    3.9940 O.3         1 MOL      -0.3141
     17 C21        47.6048   13.6214    4.0259 C.3         1 MOL       0.1195
     18 C22        48.0607   12.5962    3.0818 C.2         1 MOL       0.0648
     19 O25        47.8861   11.2846    3.3536 O.co2       1 MOL      -0.5663
     20 O26        48.6159   12.9533    1.8994 O.co2       1 MOL      -0.5663
     21 N29        45.5731   19.0353   -2.1729 N.pl3       1 MOL      -0.3119
     22 C30        45.9097   19.3049   -3.5373 C.3         1 MOL       0.0574
     23 C31        44.8716   19.7550   -4.4951 C.ar        1 MOL      -0.0218
     24 C34        45.2608   19.9321   -5.8459 C.ar        1 MOL      -0.0585
     25 C35        44.3336   20.3435   -6.8207 C.ar        1 MOL      -0.0685
     26 C36        42.9905   20.5701   -6.4599 C.ar        1 MOL      -0.0687
     27 C37        42.5876   20.3827   -5.1257 C.ar        1 MOL      -0.0685
     28 C38        43.5272   19.9873   -4.1493 C.ar        1 MOL      -0.0585
     29 H1         45.6434   18.2604    0.2483 H           1 MOL       0.0516
     30 H2         43.9112   17.3072   -3.4706 H           1 MOL       0.0521
     31 H3         42.7662   15.4419   -2.4627 H           1 MOL       0.0585
     32 H4         43.1866   14.8595   -0.1774 H           1 MOL       0.0520
     33 H5         47.9054   13.3179    5.0318 H           1 MOL       0.0780
     34 H6         48.1180   14.5711    3.8245 H           1 MOL       0.0780
     35 H7         46.0296   19.5711   -1.5177 H           1 MOL       0.1779
     36 H8         46.4036   18.4136   -3.9372 H           1 MOL       0.0675
     37 H9         46.6756   20.0947   -3.5068 H           1 MOL       0.0675
     38 H10        46.2245   19.7644   -6.1463 H           1 MOL       0.0557
     39 H11        44.6266   20.4708   -7.8009 H           1 MOL       0.0599
     40 H12        42.3152   20.8714   -7.1627 H           1 MOL       0.0559
     41 H13        41.6093   20.5388   -4.8637 H           1 MOL       0.0599
     42 H14        43.2129   19.8693   -3.1808 H           1 MOL       0.0557
@<TRIPOS>BOND
     1     1     2   1
     2     1     5   1
     3     2     3   2
     4     2     6   1
     5     3     4   1
     6     3    16   1
     7     4     5   2
     8     4    15   1
     9     5     9   1
    10     6     7  ar
    11     6     8  ar
    12     9    10  ar
    13     9    14  ar
    14    10    11  ar
    15    11    12  ar
    16    11    21   1
    17    12    13  ar
    18    13    14  ar
    19    16    17   1
    20    17    18   1
    21    18    19  ar
    22    18    20  ar
    23    21    22   1
    24    22    23   1
    25    23    24  ar
    26    23    28  ar
    27    24    25  ar
    28    25    26  ar
    29    26    27  ar
    30    27    28  ar
    31    10    29   1
    32    12    30   1
    33    13    31   1
    34    14    32   1
    35    17    33   1
    36    17    34   1
    37    21    35   1
    38    22    36   1
    39    22    37   1
    40    24    38   1
    41    25    39   1
    42    26    40   1
    43    27    41   1
    44    28    42   1
@<TRIPOS>SUBSTRUCTURE
     1  MOL      2

