@<TRIPOS>MOLECULE
2qbr_ligand_045
    42    44
SMALL
GAST_HUCK
****
This file was generated by PARSER (from files_GN.cpp)

@<TRIPOS>ATOM
      1 S1         46.8923   11.8223    3.1321 S.3         1 MOL      -0.0382
      2 C2         46.6697   13.3933    3.7958 C.2         1 MOL       0.0813
      3 C3         45.8558   14.1070    2.9017 C.2         1 MOL       0.1014
      4 C4         45.4516   13.3704    1.7683 C.2         1 MOL       0.0465
      5 C5         45.9381   12.0581    1.7246 C.2         1 MOL       0.0450
      6 C6         47.1888   13.8153    5.0281 C.2         1 MOL       0.0555
      7 O7         48.1729   13.1213    5.6397 O.co2       1 MOL      -0.5699
      8 O8         46.6721   14.8838    5.6721 O.co2       1 MOL      -0.5699
      9 C9         45.6563   11.0485    0.7905 C.ar        1 MOL      -0.0166
     10 C10        46.5063   10.8279   -0.3150 C.ar        1 MOL      -0.0360
     11 C11        46.2484    9.7769   -1.2310 C.ar        1 MOL       0.0399
     12 C12        45.1222    8.9514   -1.0131 C.ar        1 MOL      -0.0438
     13 C13        44.2694    9.1693    0.0838 C.ar        1 MOL      -0.0722
     14 C14        44.5342   10.2156    0.9832 C.ar        1 MOL      -0.0655
     15 BR19       44.3721   14.0907    0.4345 Br          1 MOL      -0.0668
     16 O20        45.4630   15.3983    3.1304 O.3         1 MOL      -0.3141
     17 C21        46.3615   16.3727    2.5682 C.3         1 MOL       0.1195
     18 C22        45.9247   17.7127    2.9806 C.2         1 MOL       0.0648
     19 O25        44.7364   18.1944    2.5547 O.co2       1 MOL      -0.5663
     20 O26        46.7535   18.5329    3.6656 O.co2       1 MOL      -0.5663
     21 N29        47.0207    9.4996   -2.3139 N.pl3       1 MOL      -0.3119
     22 C30        48.1915   10.2012   -2.7389 C.3         1 MOL       0.0574
     23 C31        48.7688    9.5649   -3.9506 C.ar        1 MOL      -0.0218
     24 C34        48.7858   10.2334   -5.1985 C.ar        1 MOL      -0.0585
     25 C35        49.3283    9.6119   -6.3389 C.ar        1 MOL      -0.0685
     26 C36        49.8644    8.3152   -6.2469 C.ar        1 MOL      -0.0687
     27 C37        49.8584    7.6402   -5.0132 C.ar        1 MOL      -0.0685
     28 C38        49.3152    8.2615   -3.8733 C.ar        1 MOL      -0.0585
     29 H1         47.3207   11.4326   -0.4458 H           1 MOL       0.0516
     30 H2         44.9134    8.1798   -1.6538 H           1 MOL       0.0521
     31 H3         43.4592    8.5623    0.2295 H           1 MOL       0.0585
     32 H4         43.9112   10.3557    1.7828 H           1 MOL       0.0520
     33 H5         46.3364   16.3266    1.4782 H           1 MOL       0.0780
     34 H6         47.3904   16.2102    2.9050 H           1 MOL       0.0780
     35 H7         46.7440    8.7470   -2.8625 H           1 MOL       0.1779
     36 H8         48.9421   10.1906   -1.9447 H           1 MOL       0.0675
     37 H9         47.9218   11.2423   -2.9346 H           1 MOL       0.0675
     38 H10        48.3974   11.1750   -5.2879 H           1 MOL       0.0557
     39 H11        49.3328   10.1028   -7.2361 H           1 MOL       0.0599
     40 H12        50.2620    7.8665   -7.0746 H           1 MOL       0.0559
     41 H13        50.2507    6.6982   -4.9451 H           1 MOL       0.0599
     42 H14        49.3188    7.7554   -2.9839 H           1 MOL       0.0557
@<TRIPOS>BOND
     1     1     2   1
     2     1     5   1
     3     2     3   2
     4     2     6   1
     5     3     4   1
     6     3    16   1
     7     4     5   2
     8     4    15   1
     9     5     9   1
    10     6     7  ar
    11     6     8  ar
    12     9    10  ar
    13     9    14  ar
    14    10    11  ar
    15    11    12  ar
    16    11    21   1
    17    12    13  ar
    18    13    14  ar
    19    16    17   1
    20    17    18   1
    21    18    19  ar
    22    18    20  ar
    23    21    22   1
    24    22    23   1
    25    23    24  ar
    26    23    28  ar
    27    24    25  ar
    28    25    26  ar
    29    26    27  ar
    30    27    28  ar
    31    10    29   1
    32    12    30   1
    33    13    31   1
    34    14    32   1
    35    17    33   1
    36    17    34   1
    37    21    35   1
    38    22    36   1
    39    22    37   1
    40    24    38   1
    41    25    39   1
    42    26    40   1
    43    27    41   1
    44    28    42   1
@<TRIPOS>SUBSTRUCTURE
     1  MOL      2

