@<TRIPOS>MOLECULE
2qbr_ligand_012
    42    44
SMALL
GAST_HUCK
****
This file was generated by PARSER (from files_GN.cpp)

@<TRIPOS>ATOM
      1 S1         45.2517   15.2682    1.1708 S.3         1 MOL      -0.0382
      2 C2         46.1228   16.1606    2.3517 C.2         1 MOL       0.0813
      3 C3         46.8199   15.2186    3.1345 C.2         1 MOL       0.1014
      4 C4         46.6370   13.8814    2.7243 C.2         1 MOL       0.0465
      5 C5         45.7905   13.6896    1.6152 C.2         1 MOL       0.0450
      6 C6         46.1090   17.5600    2.4119 C.2         1 MOL       0.0555
      7 O7         44.9671   18.2450    2.1555 O.co2       1 MOL      -0.5699
      8 O8         47.2611   18.2649    2.5296 O.co2       1 MOL      -0.5699
      9 C9         45.3273   12.5228    0.9481 C.ar        1 MOL      -0.0166
     10 C10        45.0733   12.5466   -0.4403 C.ar        1 MOL      -0.0360
     11 C11        44.3721   11.5096   -1.0947 C.ar        1 MOL       0.0399
     12 C12        44.0007   10.3719   -0.3349 C.ar        1 MOL      -0.0438
     13 C13        44.3592   10.2751    1.0232 C.ar        1 MOL      -0.0722
     14 C14        44.9882   11.3560    1.6706 C.ar        1 MOL      -0.0655
     15 BR19       47.5549   12.5007    3.5812 Br          1 MOL      -0.0668
     16 O20        47.6163   15.4997    4.2100 O.3         1 MOL      -0.3141
     17 C21        47.1344   16.4253    5.2148 C.3         1 MOL       0.1195
     18 C22        45.7742   16.1827    5.7310 C.2         1 MOL       0.0648
     19 O25        44.7731   17.0512    5.4379 O.co2       1 MOL      -0.5663
     20 O26        45.5307   15.1298    6.5506 O.co2       1 MOL      -0.5663
     21 N29        44.0599   11.7218   -2.4005 N.pl3       1 MOL      -0.3119
     22 C30        42.8623   11.3675   -3.1073 C.3         1 MOL       0.0574
     23 C31        42.4841    9.9401   -3.2088 C.ar        1 MOL      -0.0218
     24 C34        43.4268    8.9678   -3.6334 C.ar        1 MOL      -0.0585
     25 C35        43.0443    7.6228   -3.7970 C.ar        1 MOL      -0.0685
     26 C36        41.7145    7.2275   -3.5674 C.ar        1 MOL      -0.0687
     27 C37        40.7689    8.1775   -3.1549 C.ar        1 MOL      -0.0685
     28 C38        41.1454    9.5236   -2.9746 C.ar        1 MOL      -0.0585
     29 H1         45.3485   13.3661   -0.9806 H           1 MOL       0.0516
     30 H2         43.4913    9.5992   -0.7601 H           1 MOL       0.0521
     31 H3         44.1118    9.4430    1.5543 H           1 MOL       0.0585
     32 H4         45.1544   11.2940    2.6747 H           1 MOL       0.0520
     33 H5         47.1963   17.4436    4.8351 H           1 MOL       0.0780
     34 H6         47.8277   16.3689    6.0542 H           1 MOL       0.0780
     35 H7         44.5847   12.4139   -2.8462 H           1 MOL       0.1779
     36 H8         42.9664   11.7330   -4.1302 H           1 MOL       0.0675
     37 H9         42.0494   11.9463   -2.6552 H           1 MOL       0.0675
     38 H10        44.3901    9.2455   -3.8280 H           1 MOL       0.0557
     39 H11        43.7356    6.9347   -4.1009 H           1 MOL       0.0599
     40 H12        41.4394    6.2590   -3.6955 H           1 MOL       0.0559
     41 H13        39.7925    7.8973   -2.9952 H           1 MOL       0.0599
     42 H14        40.4384   10.1997   -2.6826 H           1 MOL       0.0557
@<TRIPOS>BOND
     1     1     2   1
     2     1     5   1
     3     2     3   2
     4     2     6   1
     5     3     4   1
     6     3    16   1
     7     4     5   2
     8     4    15   1
     9     5     9   1
    10     6     7  ar
    11     6     8  ar
    12     9    10  ar
    13     9    14  ar
    14    10    11  ar
    15    11    12  ar
    16    11    21   1
    17    12    13  ar
    18    13    14  ar
    19    16    17   1
    20    17    18   1
    21    18    19  ar
    22    18    20  ar
    23    21    22   1
    24    22    23   1
    25    23    24  ar
    26    23    28  ar
    27    24    25  ar
    28    25    26  ar
    29    26    27  ar
    30    27    28  ar
    31    10    29   1
    32    12    30   1
    33    13    31   1
    34    14    32   1
    35    17    33   1
    36    17    34   1
    37    21    35   1
    38    22    36   1
    39    22    37   1
    40    24    38   1
    41    25    39   1
    42    26    40   1
    43    27    41   1
    44    28    42   1
@<TRIPOS>SUBSTRUCTURE
     1  MOL      2

