@<TRIPOS>MOLECULE
2qbr_ligand_006
    42    44
SMALL
GAST_HUCK
****
This file was generated by PARSER (from files_GN.cpp)

@<TRIPOS>ATOM
      1 S1         44.1177   14.7730    2.3196 S.3         1 MOL      -0.0382
      2 C2         45.1294   15.9039    3.1407 C.2         1 MOL       0.0813
      3 C3         46.4030   15.3393    3.2245 C.2         1 MOL       0.1014
      4 C4         46.5148   14.0732    2.6082 C.2         1 MOL       0.0465
      5 C5         45.3118   13.5536    2.0848 C.2         1 MOL       0.0450
      6 C6         44.7730   17.1753    3.5733 C.2         1 MOL       0.0555
      7 O7         44.1660   17.3093    4.7726 O.co2       1 MOL      -0.5699
      8 O8         44.6216   18.1539    2.6557 O.co2       1 MOL      -0.5699
      9 C9         45.1251   12.3004    1.4506 C.ar        1 MOL      -0.0166
     10 C10        45.7733   11.1470    1.9489 C.ar        1 MOL      -0.0360
     11 C11        45.7887    9.9344    1.2303 C.ar        1 MOL       0.0399
     12 C12        45.0477    9.8547    0.0284 C.ar        1 MOL      -0.0438
     13 C13        44.3077   10.9614   -0.4275 C.ar        1 MOL      -0.0722
     14 C14        44.3458   12.1761    0.2775 C.ar        1 MOL      -0.0655
     15 BR19       48.1891   13.2737    2.4158 Br          1 MOL      -0.0668
     16 O20        47.4586   16.0016    3.7961 O.3         1 MOL      -0.3141
     17 C21        47.6440   15.7340    5.2079 C.3         1 MOL       0.1195
     18 C22        46.5136   16.1726    6.0413 C.2         1 MOL       0.0648
     19 O25        46.5132   17.4528    6.4855 O.co2       1 MOL      -0.5663
     20 O26        45.3056   15.6227    5.8030 O.co2       1 MOL      -0.5663
     21 N29        46.5858    8.9613    1.7417 N.pl3       1 MOL      -0.3119
     22 C30        47.2746    7.9093    1.0606 C.3         1 MOL       0.0574
     23 C31        48.7318    8.0034    1.3475 C.ar        1 MOL      -0.0218
     24 C34        49.4585    9.1654    0.9810 C.ar        1 MOL      -0.0585
     25 C35        50.8343    9.2717    1.2652 C.ar        1 MOL      -0.0685
     26 C36        51.5115    8.2128    1.8820 C.ar        1 MOL      -0.0687
     27 C37        50.8104    7.0417    2.2349 C.ar        1 MOL      -0.0685
     28 C38        49.4259    6.9459    1.9719 C.ar        1 MOL      -0.0585
     29 H1         46.2859   11.2050    2.8295 H           1 MOL       0.0516
     30 H2         45.0128    8.9882   -0.5088 H           1 MOL       0.0521
     31 H3         43.7717   10.8956   -1.2947 H           1 MOL       0.0585
     32 H4         43.8355   12.9847   -0.0989 H           1 MOL       0.0520
     33 H5         48.5383   16.2818    5.5135 H           1 MOL       0.0780
     34 H6         47.8455   14.6720    5.3957 H           1 MOL       0.0780
     35 H7         46.8194    9.0542    2.6799 H           1 MOL       0.1779
     36 H8         47.1406    7.9486   -0.0234 H           1 MOL       0.0675
     37 H9         46.8559    6.9593    1.4103 H           1 MOL       0.0675
     38 H10        48.9860    9.9505    0.5258 H           1 MOL       0.0557
     39 H11        51.3444   10.1295    1.0169 H           1 MOL       0.0599
     40 H12        52.5122    8.2856    2.0827 H           1 MOL       0.0559
     41 H13        51.3030    6.2689    2.6818 H           1 MOL       0.0599
     42 H14        48.9363    6.0933    2.2518 H           1 MOL       0.0557
@<TRIPOS>BOND
     1     1     2   1
     2     1     5   1
     3     2     3   2
     4     2     6   1
     5     3     4   1
     6     3    16   1
     7     4     5   2
     8     4    15   1
     9     5     9   1
    10     6     7  ar
    11     6     8  ar
    12     9    10  ar
    13     9    14  ar
    14    10    11  ar
    15    11    12  ar
    16    11    21   1
    17    12    13  ar
    18    13    14  ar
    19    16    17   1
    20    17    18   1
    21    18    19  ar
    22    18    20  ar
    23    21    22   1
    24    22    23   1
    25    23    24  ar
    26    23    28  ar
    27    24    25  ar
    28    25    26  ar
    29    26    27  ar
    30    27    28  ar
    31    10    29   1
    32    12    30   1
    33    13    31   1
    34    14    32   1
    35    17    33   1
    36    17    34   1
    37    21    35   1
    38    22    36   1
    39    22    37   1
    40    24    38   1
    41    25    39   1
    42    26    40   1
    43    27    41   1
    44    28    42   1
@<TRIPOS>SUBSTRUCTURE
     1  MOL      2

