@<TRIPOS>MOLECULE
2qbr_ligand_023
    42    44
SMALL
GAST_HUCK
****
This file was generated by PARSER (from files_GN.cpp)

@<TRIPOS>ATOM
      1 S1         43.8205   16.5761    0.8137 S.3         1 MOL      -0.0382
      2 C2         44.3715   16.3900    2.4243 C.2         1 MOL       0.0813
      3 C3         44.7417   15.0496    2.5575 C.2         1 MOL       0.1014
      4 C4         44.5105   14.2563    1.4181 C.2         1 MOL       0.0465
      5 C5         43.9953   14.9458    0.2964 C.2         1 MOL       0.0450
      6 C6         44.4140   17.4061    3.3746 C.2         1 MOL       0.0555
      7 O7         44.5563   18.6894    2.9889 O.co2       1 MOL      -0.5699
      8 O8         44.2655   17.1622    4.6893 O.co2       1 MOL      -0.5699
      9 C9         43.6179   14.4830   -1.0002 C.ar        1 MOL      -0.0166
     10 C10        44.3315   13.4586   -1.6701 C.ar        1 MOL      -0.0360
     11 C11        43.9275   12.9725   -2.9401 C.ar        1 MOL       0.0399
     12 C12        42.8087   13.5742   -3.5593 C.ar        1 MOL      -0.0438
     13 C13        42.1015   14.6046   -2.9233 C.ar        1 MOL      -0.0722
     14 C14        42.4964   15.0467   -1.6574 C.ar        1 MOL      -0.0655
     15 BR19       44.8280   12.4140    1.4830 Br          1 MOL      -0.0668
     16 O20        45.2742   14.5508    3.7109 O.3         1 MOL      -0.3141
     17 C21        46.5428   15.1450    4.0731 C.3         1 MOL       0.1195
     18 C22        46.6444   15.1409    5.5473 C.2         1 MOL       0.0648
     19 O25        47.1163   16.2294    6.2079 O.co2       1 MOL      -0.5663
     20 O26        45.9557   14.2107    6.2580 O.co2       1 MOL      -0.5663
     21 N29        44.4748   11.9268   -3.6057 N.pl3       1 MOL      -0.3119
     22 C30        45.3076   10.8815   -3.1174 C.3         1 MOL       0.0574
     23 C31        44.4392    9.7075   -2.8524 C.ar        1 MOL      -0.0218
     24 C34        44.3673    8.6165   -3.7557 C.ar        1 MOL      -0.0585
     25 C35        43.4740    7.5473   -3.5384 C.ar        1 MOL      -0.0685
     26 C36        42.6373    7.5521   -2.4052 C.ar        1 MOL      -0.0687
     27 C37        42.6922    8.6231   -1.4936 C.ar        1 MOL      -0.0685
     28 C38        43.5839    9.6902   -1.7185 C.ar        1 MOL      -0.0585
     29 H1         45.1724   13.0898   -1.2367 H           1 MOL       0.0516
     30 H2         42.4822   13.2513   -4.4703 H           1 MOL       0.0521
     31 H3         41.2753   15.0160   -3.3751 H           1 MOL       0.0585
     32 H4         41.9330   15.7855   -1.2007 H           1 MOL       0.0520
     33 H5         46.6404   16.1898    3.7259 H           1 MOL       0.0780
     34 H6         47.3711   14.5546    3.6560 H           1 MOL       0.0780
     35 H7         44.1785   11.8091   -4.5137 H           1 MOL       0.1779
     36 H8         45.8513   11.1191   -2.2136 H           1 MOL       0.0675
     37 H9         46.0395   10.6490   -3.8807 H           1 MOL       0.0675
     38 H10        44.9481    8.6000   -4.5991 H           1 MOL       0.0557
     39 H11        43.4172    6.7736   -4.2083 H           1 MOL       0.0599
     40 H12        41.9833    6.7764   -2.2471 H           1 MOL       0.0559
     41 H13        42.0767    8.6299   -0.6738 H           1 MOL       0.0599
     42 H14        43.6000   10.4638   -1.0531 H           1 MOL       0.0557
@<TRIPOS>BOND
     1     1     2   1
     2     1     5   1
     3     2     3   2
     4     2     6   1
     5     3     4   1
     6     3    16   1
     7     4     5   2
     8     4    15   1
     9     5     9   1
    10     6     7  ar
    11     6     8  ar
    12     9    10  ar
    13     9    14  ar
    14    10    11  ar
    15    11    12  ar
    16    11    21   1
    17    12    13  ar
    18    13    14  ar
    19    16    17   1
    20    17    18   1
    21    18    19  ar
    22    18    20  ar
    23    21    22   1
    24    22    23   1
    25    23    24  ar
    26    23    28  ar
    27    24    25  ar
    28    25    26  ar
    29    26    27  ar
    30    27    28  ar
    31    10    29   1
    32    12    30   1
    33    13    31   1
    34    14    32   1
    35    17    33   1
    36    17    34   1
    37    21    35   1
    38    22    36   1
    39    22    37   1
    40    24    38   1
    41    25    39   1
    42    26    40   1
    43    27    41   1
    44    28    42   1
@<TRIPOS>SUBSTRUCTURE
     1  MOL      2

