@<TRIPOS>MOLECULE
2qbr_ligand_036
    42    44
SMALL
GAST_HUCK
****
This file was generated by PARSER (from files_GN.cpp)

@<TRIPOS>ATOM
      1 S1         45.2955   17.2453    1.2986 S.3         1 MOL      -0.0382
      2 C2         46.4236   16.8966    2.5368 C.2         1 MOL       0.0813
      3 C3         46.6822   15.5215    2.4913 C.2         1 MOL       0.1014
      4 C4         46.0061   14.8538    1.4496 C.2         1 MOL       0.0465
      5 C5         45.1958   15.6559    0.6363 C.2         1 MOL       0.0450
      6 C6         46.9584   17.8754    3.3740 C.2         1 MOL       0.0555
      7 O7         46.1874   18.9211    3.7906 O.co2       1 MOL      -0.5699
      8 O8         48.2190   17.7721    3.8578 O.co2       1 MOL      -0.5699
      9 C9         44.3938   15.3080   -0.4759 C.ar        1 MOL      -0.0166
     10 C10        43.1630   15.9780   -0.7046 C.ar        1 MOL      -0.0360
     11 C11        42.2463   15.5299   -1.6806 C.ar        1 MOL       0.0399
     12 C12        42.6409   14.4708   -2.5352 C.ar        1 MOL      -0.0438
     13 C13        43.8970   13.8655   -2.3945 C.ar        1 MOL      -0.0722
     14 C14        44.7589   14.2701   -1.3600 C.ar        1 MOL      -0.0655
     15 BR19       46.1260   12.9874    1.2923 Br          1 MOL      -0.0668
     16 O20        47.4722   14.8060    3.3613 O.3         1 MOL      -0.3141
     17 C21        47.2333   14.8779    4.7848 C.3         1 MOL       0.1195
     18 C22        45.8352   14.9191    5.2547 C.2         1 MOL       0.0648
     19 O25        45.5873   14.6107    6.5430 O.co2       1 MOL      -0.5663
     20 O26        44.9680   15.7823    4.6852 O.co2       1 MOL      -0.5663
     21 N29        41.0135   16.0881   -1.6735 N.pl3       1 MOL      -0.3119
     22 C30        39.7785   15.4157   -1.9287 C.3         1 MOL       0.0574
     23 C31        38.8198   16.2406   -2.6948 C.ar        1 MOL      -0.0218
     24 C34        38.9487   16.3840   -4.0983 C.ar        1 MOL      -0.0585
     25 C35        37.9850   17.0974   -4.8364 C.ar        1 MOL      -0.0685
     26 C36        36.8893   17.6894   -4.1827 C.ar        1 MOL      -0.0687
     27 C37        36.7506   17.5593   -2.7896 C.ar        1 MOL      -0.0685
     28 C38        37.7071   16.8350   -2.0522 C.ar        1 MOL      -0.0585
     29 H1         42.8790   16.7334   -0.0710 H           1 MOL       0.0516
     30 H2         42.0305   14.1517   -3.2853 H           1 MOL       0.0521
     31 H3         44.1712   13.1064   -3.0258 H           1 MOL       0.0585
     32 H4         45.6656   13.8015   -1.2712 H           1 MOL       0.0520
     33 H5         47.7631   15.7291    5.2146 H           1 MOL       0.0780
     34 H6         47.6957   13.9763    5.2021 H           1 MOL       0.0780
     35 H7         40.9293   16.9350   -1.1861 H           1 MOL       0.1779
     36 H8         39.3737   15.1806   -0.9446 H           1 MOL       0.0675
     37 H9         39.9037   14.4532   -2.4336 H           1 MOL       0.0675
     38 H10        39.7296   15.9437   -4.5932 H           1 MOL       0.0557
     39 H11        38.0759   17.1776   -5.8528 H           1 MOL       0.0599
     40 H12        36.1913   18.2077   -4.7168 H           1 MOL       0.0559
     41 H13        35.9484   17.9782   -2.3142 H           1 MOL       0.0599
     42 H14        37.5766   16.7318   -1.0451 H           1 MOL       0.0557
@<TRIPOS>BOND
     1     1     2   1
     2     1     5   1
     3     2     3   2
     4     2     6   1
     5     3     4   1
     6     3    16   1
     7     4     5   2
     8     4    15   1
     9     5     9   1
    10     6     7  ar
    11     6     8  ar
    12     9    10  ar
    13     9    14  ar
    14    10    11  ar
    15    11    12  ar
    16    11    21   1
    17    12    13  ar
    18    13    14  ar
    19    16    17   1
    20    17    18   1
    21    18    19  ar
    22    18    20  ar
    23    21    22   1
    24    22    23   1
    25    23    24  ar
    26    23    28  ar
    27    24    25  ar
    28    25    26  ar
    29    26    27  ar
    30    27    28  ar
    31    10    29   1
    32    12    30   1
    33    13    31   1
    34    14    32   1
    35    17    33   1
    36    17    34   1
    37    21    35   1
    38    22    36   1
    39    22    37   1
    40    24    38   1
    41    25    39   1
    42    26    40   1
    43    27    41   1
    44    28    42   1
@<TRIPOS>SUBSTRUCTURE
     1  MOL      2

