@<TRIPOS>MOLECULE
2qbr_ligand_034
    42    44
SMALL
GAST_HUCK
****
This file was generated by PARSER (from files_GN.cpp)

@<TRIPOS>ATOM
      1 S1         45.0257   17.1508    2.8027 S.3         1 MOL      -0.0382
      2 C2         45.5399   16.0364    4.0062 C.2         1 MOL       0.0813
      3 C3         45.7698   14.8132    3.3467 C.2         1 MOL       0.1014
      4 C4         45.4807   14.8292    1.9643 C.2         1 MOL       0.0465
      5 C5         45.0622   16.0742    1.4613 C.2         1 MOL       0.0450
      6 C6         45.6918   16.3362    5.3748 C.2         1 MOL       0.0555
      7 O7         46.0761   15.3938    6.2669 O.co2       1 MOL      -0.5699
      8 O8         45.5229   17.6046    5.8181 O.co2       1 MOL      -0.5699
      9 C9         44.6436   16.4186    0.1548 C.ar        1 MOL      -0.0166
     10 C10        43.8376   15.5329   -0.5999 C.ar        1 MOL      -0.0360
     11 C11        43.3043   15.8964   -1.8493 C.ar        1 MOL       0.0399
     12 C12        43.6180   17.1650   -2.3816 C.ar        1 MOL      -0.0438
     13 C13        44.4690   18.0363   -1.6775 C.ar        1 MOL      -0.0722
     14 C14        44.9640   17.6729   -0.4123 C.ar        1 MOL      -0.0655
     15 BR19       45.6907   13.3021    0.9142 Br          1 MOL      -0.0668
     16 O20        46.2219   13.6992    4.0063 O.3         1 MOL      -0.3141
     17 C21        47.6571   13.5605    4.0425 C.3         1 MOL       0.1195
     18 C22        48.0726   12.4807    3.1383 C.2         1 MOL       0.0648
     19 O25        47.6308   11.2220    3.3327 O.co2       1 MOL      -0.5663
     20 O26        48.8335   12.7451    2.0577 O.co2       1 MOL      -0.5663
     21 N29        42.4838   14.9780   -2.4279 N.pl3       1 MOL      -0.3119
     22 C30        41.3448   15.2409   -3.2452 C.3         1 MOL       0.0574
     23 C31        40.2025   14.6247   -2.5120 C.ar        1 MOL      -0.0218
     24 C34        39.6408   15.2794   -1.3875 C.ar        1 MOL      -0.0585
     25 C35        38.6920   14.6274   -0.5792 C.ar        1 MOL      -0.0685
     26 C36        38.2977   13.3113   -0.8747 C.ar        1 MOL      -0.0687
     27 C37        38.8495   12.6476   -1.9833 C.ar        1 MOL      -0.0685
     28 C38        39.7977   13.2979   -2.7947 C.ar        1 MOL      -0.0585
     29 H1         43.5466   14.6392   -0.1951 H           1 MOL       0.0516
     30 H2         43.2632   17.4499   -3.2955 H           1 MOL       0.0521
     31 H3         44.7264   18.9370   -2.0812 H           1 MOL       0.0585
     32 H4         45.5648   18.3301    0.0897 H           1 MOL       0.0520
     33 H5         47.9496   13.2824    5.0567 H           1 MOL       0.0780
     34 H6         48.1926   14.4852    3.7939 H           1 MOL       0.0780
     35 H7         42.5219   14.0823   -2.0563 H           1 MOL       0.1779
     36 H8         41.4857   14.7739   -4.2230 H           1 MOL       0.0675
     37 H9         41.1636   16.3047   -3.4035 H           1 MOL       0.0675
     38 H10        39.9438   16.2241   -1.1350 H           1 MOL       0.0557
     39 H11        38.3115   15.1003    0.2416 H           1 MOL       0.0599
     40 H12        37.6197   12.8333   -0.2780 H           1 MOL       0.0559
     41 H13        38.5833   11.6818   -2.1860 H           1 MOL       0.0599
     42 H14        40.2188   12.7846   -3.5737 H           1 MOL       0.0557
@<TRIPOS>BOND
     1     1     2   1
     2     1     5   1
     3     2     3   2
     4     2     6   1
     5     3     4   1
     6     3    16   1
     7     4     5   2
     8     4    15   1
     9     5     9   1
    10     6     7  ar
    11     6     8  ar
    12     9    10  ar
    13     9    14  ar
    14    10    11  ar
    15    11    12  ar
    16    11    21   1
    17    12    13  ar
    18    13    14  ar
    19    16    17   1
    20    17    18   1
    21    18    19  ar
    22    18    20  ar
    23    21    22   1
    24    22    23   1
    25    23    24  ar
    26    23    28  ar
    27    24    25  ar
    28    25    26  ar
    29    26    27  ar
    30    27    28  ar
    31    10    29   1
    32    12    30   1
    33    13    31   1
    34    14    32   1
    35    17    33   1
    36    17    34   1
    37    21    35   1
    38    22    36   1
    39    22    37   1
    40    24    38   1
    41    25    39   1
    42    26    40   1
    43    27    41   1
    44    28    42   1
@<TRIPOS>SUBSTRUCTURE
     1  MOL      2

