@<TRIPOS>MOLECULE
2qbr_ligand_003
    42    44
SMALL
GAST_HUCK
****
This file was generated by PARSER (from files_GN.cpp)

@<TRIPOS>ATOM
      1 S1         44.2822   15.5865    1.2785 S.3         1 MOL      -0.0382
      2 C2         44.9007   16.0454    2.8157 C.2         1 MOL       0.0813
      3 C3         45.8717   15.0968    3.1729 C.2         1 MOL       0.1014
      4 C4         46.0027   14.0262    2.2617 C.2         1 MOL       0.0465
      5 C5         45.1801   14.1290    1.1282 C.2         1 MOL       0.0450
      6 C6         44.5349   17.1968    3.5224 C.2         1 MOL       0.0555
      7 O7         44.3586   18.3591    2.8628 O.co2       1 MOL      -0.5699
      8 O8         44.2576   17.1514    4.8463 O.co2       1 MOL      -0.5699
      9 C9         45.1321   13.2766    0.0128 C.ar        1 MOL      -0.0166
     10 C10        44.5256   12.0062    0.1135 C.ar        1 MOL      -0.0360
     11 C11        44.6524   11.0601   -0.9275 C.ar        1 MOL       0.0399
     12 C12        45.3405   11.4345   -2.1093 C.ar        1 MOL      -0.0438
     13 C13        45.8531   12.7357   -2.2554 C.ar        1 MOL      -0.0722
     14 C14        45.7558   13.6554   -1.1959 C.ar        1 MOL      -0.0655
     15 BR19       47.2494   12.6626    2.5063 Br          1 MOL      -0.0668
     16 O20        46.6658   15.2599    4.2776 O.3         1 MOL      -0.3141
     17 C21        47.6467   16.3160    4.1310 C.3         1 MOL       0.1195
     18 C22        47.9604   16.8595    5.4551 C.2         1 MOL       0.0648
     19 O25        47.0263   17.6241    6.0701 O.co2       1 MOL      -0.5663
     20 O26        49.2437   17.1383    5.7651 O.co2       1 MOL      -0.5663
     21 N29        44.1573    9.8170   -0.6891 N.pl3       1 MOL      -0.3119
     22 C30        44.7893    8.6014   -1.0977 C.3         1 MOL       0.0574
     23 C31        45.9883    8.4026   -0.2405 C.ar        1 MOL      -0.0218
     24 C34        47.2900    8.6692   -0.7266 C.ar        1 MOL      -0.0585
     25 C35        48.4057    8.5901    0.1280 C.ar        1 MOL      -0.0685
     26 C36        48.2345    8.2396    1.4779 C.ar        1 MOL      -0.0687
     27 C37        46.9478    7.9645    1.9763 C.ar        1 MOL      -0.0685
     28 C38        45.8347    8.0521    1.1220 C.ar        1 MOL      -0.0585
     29 H1         44.0588   11.7381    0.9893 H           1 MOL       0.0516
     30 H2         45.4489   10.7822   -2.8865 H           1 MOL       0.0521
     31 H3         46.3318   13.0028   -3.1186 H           1 MOL       0.0585
     32 H4         46.1796   14.5817   -1.2984 H           1 MOL       0.0520
     33 H5         47.3021   17.1611    3.5205 H           1 MOL       0.0780
     34 H6         48.5484   15.9070    3.6661 H           1 MOL       0.0780
     35 H7         43.6064    9.7313    0.1074 H           1 MOL       0.1779
     36 H8         45.0396    8.6132   -2.1588 H           1 MOL       0.0675
     37 H9         44.0955    7.7751   -0.9488 H           1 MOL       0.0675
     38 H10        47.4313    8.9455   -1.6999 H           1 MOL       0.0557
     39 H11        49.3399    8.7925   -0.2328 H           1 MOL       0.0599
     40 H12        49.0428    8.1844    2.0978 H           1 MOL       0.0559
     41 H13        46.8235    7.7025    2.9562 H           1 MOL       0.0599
     42 H14        44.9036    7.8715    1.5025 H           1 MOL       0.0557
@<TRIPOS>BOND
     1     1     2   1
     2     1     5   1
     3     2     3   2
     4     2     6   1
     5     3     4   1
     6     3    16   1
     7     4     5   2
     8     4    15   1
     9     5     9   1
    10     6     7  ar
    11     6     8  ar
    12     9    10  ar
    13     9    14  ar
    14    10    11  ar
    15    11    12  ar
    16    11    21   1
    17    12    13  ar
    18    13    14  ar
    19    16    17   1
    20    17    18   1
    21    18    19  ar
    22    18    20  ar
    23    21    22   1
    24    22    23   1
    25    23    24  ar
    26    23    28  ar
    27    24    25  ar
    28    25    26  ar
    29    26    27  ar
    30    27    28  ar
    31    10    29   1
    32    12    30   1
    33    13    31   1
    34    14    32   1
    35    17    33   1
    36    17    34   1
    37    21    35   1
    38    22    36   1
    39    22    37   1
    40    24    38   1
    41    25    39   1
    42    26    40   1
    43    27    41   1
    44    28    42   1
@<TRIPOS>SUBSTRUCTURE
     1  MOL      2

