@<TRIPOS>MOLECULE
2qbr_ligand_022
    42    44
SMALL
GAST_HUCK
****
This file was generated by PARSER (from files_GN.cpp)

@<TRIPOS>ATOM
      1 S1         45.4708   13.6083    0.7359 S.3         1 MOL      -0.0382
      2 C2         45.6891   13.5518    2.4539 C.2         1 MOL       0.0813
      3 C3         45.2319   14.7859    2.9644 C.2         1 MOL       0.1014
      4 C4         44.7539   15.6738    1.9798 C.2         1 MOL       0.0465
      5 C5         44.8349   15.2075    0.6567 C.2         1 MOL       0.0450
      6 C6         46.2181   12.4618    3.1394 C.2         1 MOL       0.0555
      7 O7         47.0584   12.6439    4.1949 O.co2       1 MOL      -0.5699
      8 O8         45.9365   11.1813    2.7543 O.co2       1 MOL      -0.5699
      9 C9         44.4311   15.8563   -0.5343 C.ar        1 MOL      -0.0166
     10 C10        44.8815   17.1650   -0.8252 C.ar        1 MOL      -0.0360
     11 C11        44.3739   17.8919   -1.9182 C.ar        1 MOL       0.0399
     12 C12        43.4089   17.2880   -2.7585 C.ar        1 MOL      -0.0438
     13 C13        42.9941   15.9651   -2.5190 C.ar        1 MOL      -0.0722
     14 C14        43.5062   15.2525   -1.4176 C.ar        1 MOL      -0.0655
     15 BR19       43.9463   17.2731    2.4616 Br          1 MOL      -0.0668
     16 O20        45.0600   15.0187    4.2971 O.3         1 MOL      -0.3141
     17 C21        46.1803   15.5713    5.0217 C.3         1 MOL       0.1195
     18 C22        45.9006   16.9422    5.4757 C.2         1 MOL       0.0648
     19 O25        46.8305   17.5360    6.2651 O.co2       1 MOL      -0.5663
     20 O26        44.6227   17.3566    5.6158 O.co2       1 MOL      -0.5663
     21 N29        44.7777   19.1772   -2.0544 N.pl3       1 MOL      -0.3119
     22 C30        44.1290   20.2087   -2.7979 C.3         1 MOL       0.0574
     23 C31        44.3025   20.2446   -4.2813 C.ar        1 MOL      -0.0218
     24 C34        43.1846   20.4828   -5.1226 C.ar        1 MOL      -0.0585
     25 C35        43.3613   20.6796   -6.5061 C.ar        1 MOL      -0.0685
     26 C36        44.6456   20.6325   -7.0648 C.ar        1 MOL      -0.0687
     27 C37        45.7533   20.3686   -6.2473 C.ar        1 MOL      -0.0685
     28 C38        45.5884   20.1841   -4.8641 C.ar        1 MOL      -0.0585
     29 H1         45.5725   17.6154   -0.2138 H           1 MOL       0.0516
     30 H2         43.0000   17.7731   -3.5417 H           1 MOL       0.0521
     31 H3         42.2916   15.5326   -3.1103 H           1 MOL       0.0585
     32 H4         43.1526   14.3077   -1.2259 H           1 MOL       0.0520
     33 H5         47.1247   15.5671    4.4625 H           1 MOL       0.0780
     34 H6         46.3083   14.9493    5.9060 H           1 MOL       0.0780
     35 H7         45.4726   19.4895   -1.4484 H           1 MOL       0.1779
     36 H8         44.5000   21.1647   -2.4164 H           1 MOL       0.0675
     37 H9         43.0599   20.1761   -2.5413 H           1 MOL       0.0675
     38 H10        42.2493   20.5575   -4.7223 H           1 MOL       0.0557
     39 H11        42.5494   20.8874   -7.0892 H           1 MOL       0.0599
     40 H12        44.7642   20.7893   -8.0676 H           1 MOL       0.0559
     41 H13        46.6926   20.3376   -6.6624 H           1 MOL       0.0599
     42 H14        46.4186   20.0411   -4.2754 H           1 MOL       0.0557
@<TRIPOS>BOND
     1     1     2   1
     2     1     5   1
     3     2     3   2
     4     2     6   1
     5     3     4   1
     6     3    16   1
     7     4     5   2
     8     4    15   1
     9     5     9   1
    10     6     7  ar
    11     6     8  ar
    12     9    10  ar
    13     9    14  ar
    14    10    11  ar
    15    11    12  ar
    16    11    21   1
    17    12    13  ar
    18    13    14  ar
    19    16    17   1
    20    17    18   1
    21    18    19  ar
    22    18    20  ar
    23    21    22   1
    24    22    23   1
    25    23    24  ar
    26    23    28  ar
    27    24    25  ar
    28    25    26  ar
    29    26    27  ar
    30    27    28  ar
    31    10    29   1
    32    12    30   1
    33    13    31   1
    34    14    32   1
    35    17    33   1
    36    17    34   1
    37    21    35   1
    38    22    36   1
    39    22    37   1
    40    24    38   1
    41    25    39   1
    42    26    40   1
    43    27    41   1
    44    28    42   1
@<TRIPOS>SUBSTRUCTURE
     1  MOL      2

