@<TRIPOS>MOLECULE
2qbr_ligand_032
    42    44
SMALL
GAST_HUCK
****
This file was generated by PARSER (from files_GN.cpp)

@<TRIPOS>ATOM
      1 S1         47.3465   11.8696    3.3528 S.3         1 MOL      -0.0382
      2 C2         46.5901   13.3102    3.9109 C.2         1 MOL       0.0813
      3 C3         45.6619   13.6919    2.9299 C.2         1 MOL       0.1014
      4 C4         45.5721   12.8046    1.8383 C.2         1 MOL       0.0465
      5 C5         46.4455   11.7098    1.8976 C.2         1 MOL       0.0450
      6 C6         46.8546   13.9320    5.1360 C.2         1 MOL       0.0555
      7 O7         48.0394   14.5607    5.3453 O.co2       1 MOL      -0.5699
      8 O8         45.9515   13.9119    6.1423 O.co2       1 MOL      -0.5699
      9 C9         46.5553   10.6181    1.0116 C.ar        1 MOL      -0.0166
     10 C10        47.8007   10.2743    0.4367 C.ar        1 MOL      -0.0360
     11 C11        47.9340    9.1576   -0.4260 C.ar        1 MOL       0.0399
     12 C12        46.7840    8.3740   -0.6793 C.ar        1 MOL      -0.0438
     13 C13        45.5403    8.7008   -0.1128 C.ar        1 MOL      -0.0722
     14 C14        45.4214    9.8231    0.7220 C.ar        1 MOL      -0.0655
     15 BR19       44.4310   13.1212    0.4027 Br          1 MOL      -0.0668
     16 O20        44.8910   14.8234    3.0203 O.3         1 MOL      -0.3141
     17 C21        45.6650   16.0326    3.1192 C.3         1 MOL       0.1195
     18 C22        44.7969   17.1461    3.5251 C.2         1 MOL       0.0648
     19 O25        44.6108   18.1964    2.6991 O.co2       1 MOL      -0.5663
     20 O26        44.3383   17.2327    4.7936 O.co2       1 MOL      -0.5663
     21 N29        49.0783    8.7772   -1.0562 N.pl3       1 MOL      -0.3119
     22 C30        50.3669    9.4024   -1.0753 C.3         1 MOL       0.0574
     23 C31        51.3294    8.6426   -0.2368 C.ar        1 MOL      -0.0218
     24 C34        52.2065    7.7080   -0.8343 C.ar        1 MOL      -0.0585
     25 C35        53.1447    7.0008   -0.0588 C.ar        1 MOL      -0.0685
     26 C36        53.2158    7.2214    1.3301 C.ar        1 MOL      -0.0687
     27 C37        52.3499    8.1444    1.9410 C.ar        1 MOL      -0.0685
     28 C38        51.4143    8.8545    1.1624 C.ar        1 MOL      -0.0585
     29 H1         48.6091   10.8631    0.6436 H           1 MOL       0.0516
     30 H2         46.8417    7.5547   -1.2903 H           1 MOL       0.0521
     31 H3         44.7206    8.1179   -0.3090 H           1 MOL       0.0585
     32 H4         44.5060   10.0403    1.1320 H           1 MOL       0.0520
     33 H5         46.1392   16.2630    2.1611 H           1 MOL       0.0780
     34 H6         46.4464   15.9400    3.8790 H           1 MOL       0.0780
     35 H7         48.9942    8.0003   -1.6316 H           1 MOL       0.1779
     36 H8         50.3255   10.4448   -0.7546 H           1 MOL       0.0675
     37 H9         50.7296    9.3982   -2.1088 H           1 MOL       0.0675
     38 H10        52.1706    7.5376   -1.8432 H           1 MOL       0.0557
     39 H11        53.7788    6.3333   -0.5061 H           1 MOL       0.0599
     40 H12        53.8998    6.7114    1.8931 H           1 MOL       0.0559
     41 H13        52.3985    8.3025    2.9492 H           1 MOL       0.0599
     42 H14        50.7995    9.5281    1.6262 H           1 MOL       0.0557
@<TRIPOS>BOND
     1     1     2   1
     2     1     5   1
     3     2     3   2
     4     2     6   1
     5     3     4   1
     6     3    16   1
     7     4     5   2
     8     4    15   1
     9     5     9   1
    10     6     7  ar
    11     6     8  ar
    12     9    10  ar
    13     9    14  ar
    14    10    11  ar
    15    11    12  ar
    16    11    21   1
    17    12    13  ar
    18    13    14  ar
    19    16    17   1
    20    17    18   1
    21    18    19  ar
    22    18    20  ar
    23    21    22   1
    24    22    23   1
    25    23    24  ar
    26    23    28  ar
    27    24    25  ar
    28    25    26  ar
    29    26    27  ar
    30    27    28  ar
    31    10    29   1
    32    12    30   1
    33    13    31   1
    34    14    32   1
    35    17    33   1
    36    17    34   1
    37    21    35   1
    38    22    36   1
    39    22    37   1
    40    24    38   1
    41    25    39   1
    42    26    40   1
    43    27    41   1
    44    28    42   1
@<TRIPOS>SUBSTRUCTURE
     1  MOL      2

