@<TRIPOS>MOLECULE
2qbr_ligand_043
    42    44
SMALL
GAST_HUCK
****
This file was generated by PARSER (from files_GN.cpp)

@<TRIPOS>ATOM
      1 S1         45.1916   14.4200    0.3550 S.3         1 MOL      -0.0382
      2 C2         45.2849   15.6770    1.5229 C.2         1 MOL       0.0813
      3 C3         46.0231   15.1661    2.6020 C.2         1 MOL       0.1014
      4 C4         46.4271   13.8205    2.4515 C.2         1 MOL       0.0465
      5 C5         46.0647   13.2230    1.2311 C.2         1 MOL       0.0450
      6 C6         44.6910   16.9403    1.3709 C.2         1 MOL       0.0555
      7 O7         44.6835   17.8451    2.3745 O.co2       1 MOL      -0.5699
      8 O8         44.0321   17.2603    0.2351 O.co2       1 MOL      -0.5699
      9 C9         46.2875   11.9075    0.7488 C.ar        1 MOL      -0.0166
     10 C10        46.6585   11.6968   -0.6009 C.ar        1 MOL      -0.0360
     11 C11        46.8211   10.3960   -1.1359 C.ar        1 MOL       0.0399
     12 C12        46.6317    9.2912   -0.2784 C.ar        1 MOL      -0.0438
     13 C13        46.2690    9.4788    1.0666 C.ar        1 MOL      -0.0722
     14 C14        46.0881   10.7774    1.5732 C.ar        1 MOL      -0.0655
     15 BR19       47.4258   12.9682    3.7745 Br          1 MOL      -0.0668
     16 O20        46.2770   15.8773    3.7444 O.3         1 MOL      -0.3141
     17 C21        47.5022   16.6396    3.7125 C.3         1 MOL       0.1195
     18 C22        47.7418   17.2779    5.0182 C.2         1 MOL       0.0648
     19 O25        47.0265   16.9304    6.1125 O.co2       1 MOL      -0.5663
     20 O26        48.8501   18.0282    5.2113 O.co2       1 MOL      -0.5663
     21 N29        47.1350   10.1349   -2.4326 N.pl3       1 MOL      -0.3119
     22 C30        47.3252   11.0691   -3.5016 C.3         1 MOL       0.0574
     23 C31        46.0846   11.8047   -3.8684 C.ar        1 MOL      -0.0218
     24 C34        46.0391   13.2197   -3.8545 C.ar        1 MOL      -0.0585
     25 C35        44.8562   13.9047   -4.1893 C.ar        1 MOL      -0.0685
     26 C36        43.7045   13.1840   -4.5508 C.ar        1 MOL      -0.0687
     27 C37        43.7372   11.7785   -4.5829 C.ar        1 MOL      -0.0685
     28 C38        44.9207   11.0946   -4.2476 C.ar        1 MOL      -0.0585
     29 H1         46.8216   12.5058   -1.2005 H           1 MOL       0.0516
     30 H2         46.7424    8.3361   -0.6311 H           1 MOL       0.0521
     31 H3         46.1212    8.6675    1.6712 H           1 MOL       0.0585
     32 H4         45.7801   10.8850    2.5421 H           1 MOL       0.0520
     33 H5         47.4421   17.4226    2.9516 H           1 MOL       0.0780
     34 H6         48.3584   15.9966    3.4877 H           1 MOL       0.0780
     35 H7         47.2355    9.1982   -2.6704 H           1 MOL       0.1779
     36 H8         47.6519   10.5070   -4.3791 H           1 MOL       0.0675
     37 H9         48.1409   11.7469   -3.2357 H           1 MOL       0.0675
     38 H10        46.8654   13.7629   -3.5942 H           1 MOL       0.0557
     39 H11        44.8337   14.9266   -4.1684 H           1 MOL       0.0599
     40 H12        42.8449   13.6815   -4.7925 H           1 MOL       0.0559
     41 H13        42.9006   11.2547   -4.8478 H           1 MOL       0.0599
     42 H14        44.9265   10.0721   -4.2750 H           1 MOL       0.0557
@<TRIPOS>BOND
     1     1     2   1
     2     1     5   1
     3     2     3   2
     4     2     6   1
     5     3     4   1
     6     3    16   1
     7     4     5   2
     8     4    15   1
     9     5     9   1
    10     6     7  ar
    11     6     8  ar
    12     9    10  ar
    13     9    14  ar
    14    10    11  ar
    15    11    12  ar
    16    11    21   1
    17    12    13  ar
    18    13    14  ar
    19    16    17   1
    20    17    18   1
    21    18    19  ar
    22    18    20  ar
    23    21    22   1
    24    22    23   1
    25    23    24  ar
    26    23    28  ar
    27    24    25  ar
    28    25    26  ar
    29    26    27  ar
    30    27    28  ar
    31    10    29   1
    32    12    30   1
    33    13    31   1
    34    14    32   1
    35    17    33   1
    36    17    34   1
    37    21    35   1
    38    22    36   1
    39    22    37   1
    40    24    38   1
    41    25    39   1
    42    26    40   1
    43    27    41   1
    44    28    42   1
@<TRIPOS>SUBSTRUCTURE
     1  MOL      2

