@<TRIPOS>MOLECULE
2qft_ligand_012
    16    15
SMALL
GAST_HUCK
****
This file was generated by PARSER (from files_GN.cpp)

@<TRIPOS>ATOM
      1 P1         60.0899    9.5056   26.9400 P.3         1 GPJ       0.1070
      2 O1         59.4536    8.4799   26.1550 O.co2       1 GPJ      -0.5587
      3 O2         60.8527   10.3201   26.0292 O.co2       1 GPJ      -0.5587
      4 O3         59.0726   10.3358   27.5322 O.co2       1 GPJ      -0.5587
      5 O4         57.3441    8.2711   29.3692 O.co2       1 GPJ      -0.5645
      6 O5         57.5507    6.7123   27.6572 O.co2       1 GPJ      -0.5645
      7 C1         61.0464    8.8048   28.1040 C.3         1 GPJ       0.0369
      8 C2         59.4705    7.0716   29.1508 C.3         1 GPJ       0.0207
      9 C3         58.1069    7.3841   28.6903 C.2         1 GPJ       0.0813
     10 N1         60.3332    8.2717   29.2930 N.4         1 GPJ       0.2507
     11 H1         61.7373    9.5705   28.4645 H           1 GPJ       0.1013
     12 H2         61.6404    8.0082   27.6499 H           1 GPJ       0.1013
     13 H3         59.9382    6.3397   28.4889 H           1 GPJ       0.0989
     14 H4         59.3869    6.6026   30.1376 H           1 GPJ       0.0989
     15 H5         59.7876    9.0238   29.7203 H           1 GPJ       0.2042
     16 H6         61.0725    8.0103   29.9448 H           1 GPJ       0.2042
@<TRIPOS>BOND
     1     1     2  ar
     2     1     3  ar
     3     1     4  ar
     4     7     1   1
     5     9     5  ar
     6     9     6  ar
     7    10     7   1
     8     8     9   1
     9     8    10   1
    10     7    11   1
    11     7    12   1
    12     8    13   1
    13     8    14   1
    14    10    15   1
    15    10    16   1
@<TRIPOS>SUBSTRUCTURE
     1  GPJ      7

