@<TRIPOS>MOLECULE
2qft_ligand_005
    16    15
SMALL
GAST_HUCK
****
This file was generated by PARSER (from files_GN.cpp)

@<TRIPOS>ATOM
      1 P1         57.9874    8.2365   30.2154 P.3         1 GPJ       0.1070
      2 O1         58.1722    7.3302   31.3223 O.co2       1 GPJ      -0.5587
      3 O2         57.5462    7.4981   29.0585 O.co2       1 GPJ      -0.5587
      4 O3         56.9302    9.1682   30.5266 O.co2       1 GPJ      -0.5587
      5 O4         59.4710    8.5908   26.0712 O.co2       1 GPJ      -0.5645
      6 O5         59.7651   10.6991   27.0138 O.co2       1 GPJ      -0.5645
      7 C1         59.3986    9.0281   29.8472 C.3         1 GPJ       0.0369
      8 C2         61.0410    8.8186   27.9334 C.3         1 GPJ       0.0207
      9 C3         60.1483    9.3992   26.9159 C.2         1 GPJ       0.0813
     10 N1         60.2944    8.1655   29.0329 N.4         1 GPJ       0.2507
     11 H1         59.9078    9.3141   30.7775 H           1 GPJ       0.1013
     12 H2         59.1256    9.9386   29.3035 H           1 GPJ       0.1013
     13 H3         61.7020    9.5873   28.3438 H           1 GPJ       0.0989
     14 H4         61.6570    8.0626   27.4447 H           1 GPJ       0.0989
     15 H5         59.7395    7.4085   28.6192 H           1 GPJ       0.2042
     16 H6         60.9907    7.7395   29.6515 H           1 GPJ       0.2042
@<TRIPOS>BOND
     1     1     2  ar
     2     1     3  ar
     3     1     4  ar
     4     7     1   1
     5     9     5  ar
     6     9     6  ar
     7    10     7   1
     8     8     9   1
     9     8    10   1
    10     7    11   1
    11     7    12   1
    12     8    13   1
    13     8    14   1
    14    10    15   1
    15    10    16   1
@<TRIPOS>SUBSTRUCTURE
     1  GPJ      7

