@<TRIPOS>MOLECULE
2qft_ligand_009
    16    15
SMALL
GAST_HUCK
****
This file was generated by PARSER (from files_GN.cpp)

@<TRIPOS>ATOM
      1 P1         57.6079    7.6729   27.7540 P.3         1 GPJ       0.1070
      2 O1         56.6566    8.6687   28.1878 O.co2       1 GPJ      -0.5587
      3 O2         56.8922    6.4299   27.5648 O.co2       1 GPJ      -0.5587
      4 O3         58.1539    8.0339   26.4663 O.co2       1 GPJ      -0.5587
      5 O4         60.5852    8.4450   25.8478 O.co2       1 GPJ      -0.5645
      6 O5         60.6309   10.6232   26.6695 O.co2       1 GPJ      -0.5645
      7 C1         58.8201    7.4445   28.8747 C.3         1 GPJ       0.0369
      8 C2         60.9081    8.7635   28.2396 C.3         1 GPJ       0.0207
      9 C3         60.6036    9.2938   26.9034 C.2         1 GPJ       0.0813
     10 N1         59.6976    8.6332   29.0925 N.4         1 GPJ       0.2507
     11 H1         59.4035    6.5606   28.5979 H           1 GPJ       0.1013
     12 H2         58.3269    7.2386   29.8310 H           1 GPJ       0.1013
     13 H3         61.5946    9.4515   28.7362 H           1 GPJ       0.0989
     14 H4         61.4129    7.7966   28.1600 H           1 GPJ       0.0989
     15 H5         60.0345    8.5658   30.0570 H           1 GPJ       0.2042
     16 H6         59.1417    9.4946   29.0134 H           1 GPJ       0.2042
@<TRIPOS>BOND
     1     1     2  ar
     2     1     3  ar
     3     1     4  ar
     4     7     1   1
     5     9     5  ar
     6     9     6  ar
     7    10     7   1
     8     8     9   1
     9     8    10   1
    10     7    11   1
    11     7    12   1
    12     8    13   1
    13     8    14   1
    14    10    15   1
    15    10    16   1
@<TRIPOS>SUBSTRUCTURE
     1  GPJ      7

