@<TRIPOS>MOLECULE
2qft_ligand_006
    16    15
SMALL
GAST_HUCK
****
This file was generated by PARSER (from files_GN.cpp)

@<TRIPOS>ATOM
      1 P1         56.4802   10.7555   29.7145 P.3         1 GPJ       0.1070
      2 O1         55.4564   10.0603   30.4512 O.co2       1 GPJ      -0.5587
      3 O2         56.0141   10.9412   28.3618 O.co2       1 GPJ      -0.5587
      4 O3         56.5912   12.0568   30.3197 O.co2       1 GPJ      -0.5587
      5 O4         60.8219   10.5433   26.8128 O.co2       1 GPJ      -0.5645
      6 O5         60.8007    8.2884   26.2472 O.co2       1 GPJ      -0.5645
      7 C1         57.9379    9.9478   29.7756 C.3         1 GPJ       0.0369
      8 C2         59.8034    8.9758   28.3830 C.3         1 GPJ       0.0207
      9 C3         60.4569    9.2726   27.1019 C.2         1 GPJ       0.0813
     10 N1         58.4861    9.6440   28.4239 N.4         1 GPJ       0.2507
     11 H1         57.8051    9.0148   30.3271 H           1 GPJ       0.1013
     12 H2         58.6550   10.5687   30.3176 H           1 GPJ       0.1013
     13 H3         60.4623    9.3237   29.1858 H           1 GPJ       0.0989
     14 H4         59.6771    7.8916   28.4983 H           1 GPJ       0.0989
     15 H5         58.5687   10.5275   27.9201 H           1 GPJ       0.2042
     16 H6         57.8162    9.0509   27.9259 H           1 GPJ       0.2042
@<TRIPOS>BOND
     1     1     2  ar
     2     1     3  ar
     3     1     4  ar
     4     7     1   1
     5     9     5  ar
     6     9     6  ar
     7    10     7   1
     8     8     9   1
     9     8    10   1
    10     7    11   1
    11     7    12   1
    12     8    13   1
    13     8    14   1
    14    10    15   1
    15    10    16   1
@<TRIPOS>SUBSTRUCTURE
     1  GPJ      7

