@<TRIPOS>MOLECULE
2qft_ligand_026
    16    15
SMALL
GAST_HUCK
****
This file was generated by PARSER (from files_GN.cpp)

@<TRIPOS>ATOM
      1 P1         60.6122    9.1945   27.2801 P.3         1 GPJ       0.1070
      2 O1         61.1681    8.0008   26.6992 O.co2       1 GPJ      -0.5587
      3 O2         61.5198    9.6483   28.3022 O.co2       1 GPJ      -0.5587
      4 O3         60.5435   10.1981   26.2459 O.co2       1 GPJ      -0.5587
      5 O4         57.7276   12.1053   30.3079 O.co2       1 GPJ      -0.5645
      6 O5         55.5710   11.2426   30.3820 O.co2       1 GPJ      -0.5645
      7 C1         59.1205    8.8734   27.9322 C.3         1 GPJ       0.0369
      8 C2         57.2958    9.8776   29.3277 C.3         1 GPJ       0.0207
      9 C3         56.8468   11.1398   29.9457 C.2         1 GPJ       0.0813
     10 N1         58.6214   10.0397   28.6932 N.4         1 GPJ       0.2507
     11 H1         59.2025    8.0052   28.5898 H           1 GPJ       0.1013
     12 H2         58.4287    8.6345   27.1234 H           1 GPJ       0.1013
     13 H3         56.5566    9.5738   28.5810 H           1 GPJ       0.0989
     14 H4         57.3439    9.1123   30.1077 H           1 GPJ       0.0989
     15 H5         58.5735   10.8423   28.0575 H           1 GPJ       0.2042
     16 H6         59.2853   10.2467   29.4435 H           1 GPJ       0.2042
@<TRIPOS>BOND
     1     1     2  ar
     2     1     3  ar
     3     1     4  ar
     4     7     1   1
     5     9     5  ar
     6     9     6  ar
     7    10     7   1
     8     8     9   1
     9     8    10   1
    10     7    11   1
    11     7    12   1
    12     8    13   1
    13     8    14   1
    14    10    15   1
    15    10    16   1
@<TRIPOS>SUBSTRUCTURE
     1  GPJ      7

