@<TRIPOS>MOLECULE
2qft_ligand_003
    16    15
SMALL
GAST_HUCK
****
This file was generated by PARSER (from files_GN.cpp)

@<TRIPOS>ATOM
      1 P1         57.9915    8.1745   27.8874 P.3         1 GPJ       0.1070
      2 O1         58.2030    9.5973   27.7404 O.co2       1 GPJ      -0.5587
      3 O2         56.8405    7.9702   28.7380 O.co2       1 GPJ      -0.5587
      4 O3         57.7180    7.5947   26.5975 O.co2       1 GPJ      -0.5587
      5 O4         60.4169    8.2538   32.9321 O.co2       1 GPJ      -0.5645
      6 O5         60.5845   10.2576   31.7843 O.co2       1 GPJ      -0.5645
      7 C1         59.3438    7.4725   28.5600 C.3         1 GPJ       0.0369
      8 C2         59.1640    8.4982   30.8681 C.3         1 GPJ       0.0207
      9 C3         59.9923    9.0550   31.9381 C.2         1 GPJ       0.0813
     10 N1         59.9904    8.2170   29.6721 N.4         1 GPJ       0.2507
     11 H1         60.1063    7.3747   27.7812 H           1 GPJ       0.1013
     12 H2         59.1039    6.4651   28.9018 H           1 GPJ       0.1013
     13 H3         58.3886    9.2283   30.6377 H           1 GPJ       0.0989
     14 H4         58.6861    7.5759   31.2031 H           1 GPJ       0.0989
     15 H5         60.3465    9.0992   29.2925 H           1 GPJ       0.2042
     16 H6         60.7950    7.6511   29.9667 H           1 GPJ       0.2042
@<TRIPOS>BOND
     1     1     2  ar
     2     1     3  ar
     3     1     4  ar
     4     7     1   1
     5     9     5  ar
     6     9     6  ar
     7    10     7   1
     8     8     9   1
     9     8    10   1
    10     7    11   1
    11     7    12   1
    12     8    13   1
    13     8    14   1
    14    10    15   1
    15    10    16   1
@<TRIPOS>SUBSTRUCTURE
     1  GPJ      7

