@<TRIPOS>MOLECULE
2qft_ligand_020
    16    15
SMALL
GAST_HUCK
****
This file was generated by PARSER (from files_GN.cpp)

@<TRIPOS>ATOM
      1 P1         55.2587    4.4618   26.2827 P.3         1 GPJ       0.1070
      2 O1         54.2463    3.9011   25.4239 O.co2       1 GPJ      -0.5587
      3 O2         55.4179    3.6246   27.4407 O.co2       1 GPJ      -0.5587
      4 O3         56.5036    4.4822   25.5570 O.co2       1 GPJ      -0.5587
      5 O4         53.9981    8.2839   29.5437 O.co2       1 GPJ      -0.5645
      6 O5         54.1855    9.4166   27.5122 O.co2       1 GPJ      -0.5645
      7 C1         54.8562    6.0044   26.7292 C.3         1 GPJ       0.0369
      8 C2         52.8976    7.3271   27.5701 C.3         1 GPJ       0.0207
      9 C3         53.6984    8.3762   28.2294 C.2         1 GPJ       0.0813
     10 N1         53.5818    6.0198   27.4911 N.4         1 GPJ       0.2507
     11 H1         54.7941    6.6084   25.8201 H           1 GPJ       0.1013
     12 H2         55.6548    6.4157   27.3561 H           1 GPJ       0.1013
     13 H3         52.6429    7.6493   26.5567 H           1 GPJ       0.0989
     14 H4         51.9637    7.2014   28.1278 H           1 GPJ       0.0989
     15 H5         53.7647    5.6959   28.4429 H           1 GPJ       0.2042
     16 H6         52.9197    5.3639   27.0570 H           1 GPJ       0.2042
@<TRIPOS>BOND
     1     1     2  ar
     2     1     3  ar
     3     1     4  ar
     4     7     1   1
     5     9     5  ar
     6     9     6  ar
     7    10     7   1
     8     8     9   1
     9     8    10   1
    10     7    11   1
    11     7    12   1
    12     8    13   1
    13     8    14   1
    14    10    15   1
    15    10    16   1
@<TRIPOS>SUBSTRUCTURE
     1  GPJ      7

