@<TRIPOS>MOLECULE
2qft_ligand_024
    16    15
SMALL
GAST_HUCK
****
This file was generated by PARSER (from files_GN.cpp)

@<TRIPOS>ATOM
      1 P1         56.1110   10.0614   29.3619 P.3         1 GPJ       0.1070
      2 O1         55.8254    9.8803   27.9546 O.co2       1 GPJ      -0.5587
      3 O2         55.1739    9.2492   30.1114 O.co2       1 GPJ      -0.5587
      4 O3         57.4155    9.5071   29.6400 O.co2       1 GPJ      -0.5587
      5 O4         57.6344   14.9389   27.1434 O.co2       1 GPJ      -0.5645
      6 O5         55.5788   13.9101   27.3646 O.co2       1 GPJ      -0.5645
      7 C1         56.0071   11.6417   29.8501 C.3         1 GPJ       0.0369
      8 C2         57.5934   12.7012   28.1459 C.3         1 GPJ       0.0207
      9 C3         56.9192   13.8524   27.5102 C.2         1 GPJ       0.0813
     10 N1         57.2209   12.4477   29.5635 N.4         1 GPJ       0.2507
     11 H1         55.8845   11.6348   30.9342 H           1 GPJ       0.1013
     12 H2         55.1150   12.1046   29.4290 H           1 GPJ       0.1013
     13 H3         58.6675   12.8988   28.1095 H           1 GPJ       0.0989
     14 H4         57.4062   11.8105   27.5435 H           1 GPJ       0.0989
     15 H5         58.0195   11.9793   30.0158 H           1 GPJ       0.2042
     16 H6         57.1098   13.3562   30.0146 H           1 GPJ       0.2042
@<TRIPOS>BOND
     1     1     2  ar
     2     1     3  ar
     3     1     4  ar
     4     7     1   1
     5     9     5  ar
     6     9     6  ar
     7    10     7   1
     8     8     9   1
     9     8    10   1
    10     7    11   1
    11     7    12   1
    12     8    13   1
    13     8    14   1
    14    10    15   1
    15    10    16   1
@<TRIPOS>SUBSTRUCTURE
     1  GPJ      7

