@<TRIPOS>MOLECULE
2qft_ligand_010
    16    15
SMALL
GAST_HUCK
****
This file was generated by PARSER (from files_GN.cpp)

@<TRIPOS>ATOM
      1 P1         60.4838    8.8236   27.6645 P.3         1 GPJ       0.1070
      2 O1         61.3870    9.6240   28.4511 O.co2       1 GPJ      -0.5587
      3 O2         59.4817    9.6681   27.0641 O.co2       1 GPJ      -0.5587
      4 O3         61.2379    8.2829   26.5613 O.co2       1 GPJ      -0.5587
      5 O4         58.4666   10.5405   30.1544 O.co2       1 GPJ      -0.5645
      6 O5         56.9066    8.8508   29.7241 O.co2       1 GPJ      -0.5645
      7 C1         59.7949    7.5819   28.5380 C.3         1 GPJ       0.0369
      8 C2         58.9899    8.2558   30.8758 C.3         1 GPJ       0.0207
      9 C3         58.1046    9.2341   30.2219 C.2         1 GPJ       0.0813
     10 N1         60.0407    7.6804   29.9986 N.4         1 GPJ       0.2507
     11 H1         60.2477    6.6490   28.2008 H           1 GPJ       0.1013
     12 H2         58.7246    7.5144   28.3185 H           1 GPJ       0.1013
     13 H3         58.3995    7.4282   31.2973 H           1 GPJ       0.0989
     14 H4         59.4993    8.7600   31.7030 H           1 GPJ       0.0989
     15 H5         60.9233    8.1772   30.1603 H           1 GPJ       0.2042
     16 H6         60.1889    6.7256   30.3262 H           1 GPJ       0.2042
@<TRIPOS>BOND
     1     1     2  ar
     2     1     3  ar
     3     1     4  ar
     4     7     1   1
     5     9     5  ar
     6     9     6  ar
     7    10     7   1
     8     8     9   1
     9     8    10   1
    10     7    11   1
    11     7    12   1
    12     8    13   1
    13     8    14   1
    14    10    15   1
    15    10    16   1
@<TRIPOS>SUBSTRUCTURE
     1  GPJ      7

