@<TRIPOS>MOLECULE
2qft_ligand_002
    16    15
SMALL
GAST_HUCK
****
This file was generated by PARSER (from files_GN.cpp)

@<TRIPOS>ATOM
      1 P1         60.6314    9.2715   31.3416 P.3         1 GPJ       0.1070
      2 O1         60.8141    8.2236   32.3130 O.co2       1 GPJ      -0.5587
      3 O2         60.2141   10.4510   32.0652 O.co2       1 GPJ      -0.5587
      4 O3         61.9147    9.6052   30.7726 O.co2       1 GPJ      -0.5587
      5 O4         59.7456   10.5772   27.1415 O.co2       1 GPJ      -0.5645
      6 O5         59.4565    8.5424   26.0258 O.co2       1 GPJ      -0.5645
      7 C1         59.4981    8.8607   30.1948 C.3         1 GPJ       0.0369
      8 C2         60.8383    8.5740   28.0600 C.3         1 GPJ       0.0207
      9 C3         59.9965    9.2428   27.0567 C.2         1 GPJ       0.0813
     10 N1         60.0343    7.9549   29.1444 N.4         1 GPJ       0.2507
     11 H1         59.0718    9.7668   29.7587 H           1 GPJ       0.1013
     12 H2         58.6843    8.3432   30.7061 H           1 GPJ       0.1013
     13 H3         61.5567    9.2900   28.4744 H           1 GPJ       0.0989
     14 H4         61.4034    7.7804   27.5632 H           1 GPJ       0.0989
     15 H5         59.2440    7.4656   28.7175 H           1 GPJ       0.2042
     16 H6         60.6206    7.2569   29.6068 H           1 GPJ       0.2042
@<TRIPOS>BOND
     1     1     2  ar
     2     1     3  ar
     3     1     4  ar
     4     7     1   1
     5     9     5  ar
     6     9     6  ar
     7    10     7   1
     8     8     9   1
     9     8    10   1
    10     7    11   1
    11     7    12   1
    12     8    13   1
    13     8    14   1
    14    10    15   1
    15    10    16   1
@<TRIPOS>SUBSTRUCTURE
     1  GPJ      7

