@<TRIPOS>MOLECULE
2qft_ligand_011
    16    15
SMALL
GAST_HUCK
****
This file was generated by PARSER (from files_GN.cpp)

@<TRIPOS>ATOM
      1 P1         60.7292    9.2797   31.3158 P.3         1 GPJ       0.1070
      2 O1         61.8320    9.5960   30.4444 O.co2       1 GPJ      -0.5587
      3 O2         61.1457    8.2947   32.2788 O.co2       1 GPJ      -0.5587
      4 O3         60.4131   10.4837   32.0359 O.co2       1 GPJ      -0.5587
      5 O4         59.1234    8.5051   26.5763 O.co2       1 GPJ      -0.5645
      6 O5         57.3422    9.1546   27.8983 O.co2       1 GPJ      -0.5645
      7 C1         59.4052    8.7573   30.4764 C.3         1 GPJ       0.0369
      8 C2         58.6777    7.2409   28.6191 C.3         1 GPJ       0.0207
      9 C3         58.2709    8.2200   27.5918 C.2         1 GPJ       0.0813
     10 N1         59.7779    7.7348   29.4723 N.4         1 GPJ       0.2507
     11 H1         58.9659    9.6296   29.9931 H           1 GPJ       0.1013
     12 H2         58.6758    8.3460   31.1817 H           1 GPJ       0.1013
     13 H3         59.0136    6.3327   28.1178 H           1 GPJ       0.0989
     14 H4         57.8094    6.9705   29.2248 H           1 GPJ       0.0989
     15 H5         60.1908    6.9316   29.9597 H           1 GPJ       0.2042
     16 H6         60.4917    8.1203   28.8590 H           1 GPJ       0.2042
@<TRIPOS>BOND
     1     1     2  ar
     2     1     3  ar
     3     1     4  ar
     4     7     1   1
     5     9     5  ar
     6     9     6  ar
     7    10     7   1
     8     8     9   1
     9     8    10   1
    10     7    11   1
    11     7    12   1
    12     8    13   1
    13     8    14   1
    14    10    15   1
    15    10    16   1
@<TRIPOS>SUBSTRUCTURE
     1  GPJ      7

