@<TRIPOS>MOLECULE
2qft_ligand_015
    16    15
SMALL
GAST_HUCK
****
This file was generated by PARSER (from files_GN.cpp)

@<TRIPOS>ATOM
      1 P1         55.2981    9.9411   29.6541 P.3         1 GPJ       0.1070
      2 O1         55.7104    8.6056   30.0280 O.co2       1 GPJ      -0.5587
      3 O2         55.5652   10.8426   30.7486 O.co2       1 GPJ      -0.5587
      4 O3         56.1194   10.3090   28.5287 O.co2       1 GPJ      -0.5587
      5 O4         52.8680   12.6145   25.3315 O.co2       1 GPJ      -0.5645
      6 O5         54.6584   13.3146   26.6629 O.co2       1 GPJ      -0.5645
      7 C1         53.6870    9.9309   29.2216 C.3         1 GPJ       0.0369
      8 C2         53.8347   11.0271   26.9413 C.3         1 GPJ       0.0207
      9 C3         53.7235   12.3743   26.3510 C.2         1 GPJ       0.0813
     10 N1         53.2874   11.0483   28.3191 N.4         1 GPJ       0.2507
     11 H1         53.0985   10.0162   30.1426 H           1 GPJ       0.1013
     12 H2         53.4486    8.9676   28.7618 H           1 GPJ       0.1013
     13 H3         54.8847   10.7326   26.9264 H           1 GPJ       0.0989
     14 H4         53.2703   10.2993   26.3440 H           1 GPJ       0.0989
     15 H5         53.5330   11.9365   28.7692 H           1 GPJ       0.2042
     16 H6         52.2692   11.0041   28.2084 H           1 GPJ       0.2042
@<TRIPOS>BOND
     1     1     2  ar
     2     1     3  ar
     3     1     4  ar
     4     7     1   1
     5     9     5  ar
     6     9     6  ar
     7    10     7   1
     8     8     9   1
     9     8    10   1
    10     7    11   1
    11     7    12   1
    12     8    13   1
    13     8    14   1
    14    10    15   1
    15    10    16   1
@<TRIPOS>SUBSTRUCTURE
     1  GPJ      7

