@<TRIPOS>MOLECULE
2qmj_ligand_067
    88    91
SMALL
GAST_HUCK
****
This file was generated by PARSER (from files_GN.cpp)

@<TRIPOS>ATOM
      1 C1A       -20.4185   -7.7019   -8.7002 C.3         1 ACR       0.0141
      2 C2A       -19.4674   -8.8920   -9.0386 C.3         1 ACR       0.1303
      3 C3A       -18.7251   -8.6397  -10.3764 C.3         1 ACR       0.1215
      4 C4A       -19.7484   -8.3766  -11.5198 C.3         1 ACR       0.1112
      5 C5A       -20.9224   -7.5721  -11.1484 C.2         1 ACR      -0.0200
      6 C6A       -21.8818   -7.1711  -12.1815 C.3         1 ACR       0.0719
      7 C7A       -21.2084   -7.2965   -9.8570 C.2         1 ACR      -0.0543
      8 O2A       -18.5283   -9.1661   -7.9999 O.3         1 ACR      -0.3821
      9 O3A       -17.9118   -9.7630  -10.7261 O.3         1 ACR      -0.3843
     10 O4A       -19.0486   -7.8054  -12.6278 O.3         1 ACR      -0.3780
     11 O6A       -22.0821   -5.7576  -12.1780 O.3         1 ACR      -0.3839
     12 C1B       -18.9449   -5.2310   -4.1360 C.3         1 ACR       0.1886
     13 C2B       -17.8998   -4.8434   -5.2250 C.3         1 ACR       0.1370
     14 C3B       -18.4439   -5.0652   -6.6665 C.3         1 ACR       0.1304
     15 C4B       -19.2892   -6.3709   -6.7781 C.3         1 ACR       0.0341
     16 C5B       -20.4536   -6.3363   -5.7172 C.3         1 ACR       0.1038
     17 C6B       -20.7416   -7.6952   -5.0214 C.3         1 ACR      -0.0332
     18 N4B       -19.7509   -6.4682   -8.1937 N.4         1 ACR       0.2433
     19 O2B       -17.4585   -3.4919   -5.0950 O.3         1 ACR      -0.3840
     20 O3B       -17.3479   -5.0738   -7.5818 O.3         1 ACR      -0.3834
     21 O5B       -20.2733   -5.3243   -4.6958 O.3         1 ACR      -0.3401
     22 C1C       -19.4330   -3.9070    1.0176 C.3         1 ACR       0.1884
     23 C2C       -19.5411   -5.3759    0.5280 C.3         1 ACR       0.1341
     24 C3C       -19.0163   -5.4858   -0.9317 C.3         1 ACR       0.1144
     25 C4C       -19.6944   -4.4439   -1.8821 C.3         1 ACR       0.1184
     26 C5C       -19.7858   -3.0307   -1.2231 C.3         1 ACR       0.1134
     27 C6C       -20.6927   -2.0722   -2.0451 C.3         1 ACR       0.0730
     28 O2C       -18.8058   -6.2507    1.3881 O.3         1 ACR      -0.3841
     29 O3C       -19.2318   -6.8279   -1.3849 O.3         1 ACR      -0.3864
     30 O4C       -18.9245   -4.2503   -3.0876 O.3         1 ACR      -0.3401
     31 O5C       -20.2411   -3.0854    0.1461 O.3         1 ACR      -0.3405
     32 O6C       -21.3858   -1.1396   -1.2108 O.3         1 ACR      -0.3924
     33 C1D       -15.5352   -0.3119    2.2287 C.3         1 ACR       0.1854
     34 C2D       -16.9059   -0.3580    2.9531 C.3         1 ACR       0.1339
     35 C3D       -17.5676   -1.7572    2.7845 C.3         1 ACR       0.1144
     36 C4D       -17.6307   -2.1638    1.2837 C.3         1 ACR       0.1184
     37 C5D       -16.2244   -2.0088    0.6109 C.3         1 ACR       0.1134
     38 C6D       -16.2502   -2.2379   -0.9206 C.3         1 ACR       0.0730
     39 O1D       -14.5659   -1.1265    2.8887 O.3         1 ACR      -0.3649
     40 O2D       -16.7500   -0.0323    4.3335 O.3         1 ACR      -0.3841
     41 O3D       -18.8804   -1.7167    3.3433 O.3         1 ACR      -0.3864
     42 O4D       -18.0295   -3.5445    1.0988 O.3         1 ACR      -0.3401
     43 O5D       -15.6715   -0.6926    0.8469 O.3         1 ACR      -0.3407
     44 O6D       -16.8495   -1.1399   -1.6049 O.3         1 ACR      -0.3924
     45 H1        -21.1337   -8.0541   -7.9625 H           1 ACR       0.0950
     46 H2        -20.0764   -9.7958   -9.1551 H           1 ACR       0.0694
     47 H3        -18.0729   -7.7686  -10.2605 H           1 ACR       0.0671
     48 H4        -20.1317   -9.3437  -11.8574 H           1 ACR       0.0769
     49 H5        -22.8418   -7.6648  -12.0101 H           1 ACR       0.0706
     50 H6        -21.5447   -7.4533  -13.1805 H           1 ACR       0.0706
     51 H7        -22.0301   -6.7711   -9.6536 H           1 ACR       0.0299
     52 H8        -19.0611   -9.5637   -7.2741 H           1 ACR       0.2103
     53 H9        -17.4561  -10.0281   -9.8984 H           1 ACR       0.2102
     54 H10       -18.9632   -6.8417  -12.4661 H           1 ACR       0.2130
     55 H11       -22.5445   -5.5585  -11.3332 H           1 ACR       0.2125
     56 H12       -18.6491   -6.1947   -3.7177 H           1 ACR       0.0938
     57 H13       -17.0125   -5.4690   -5.0837 H           1 ACR       0.0672
     58 H14       -19.0855   -4.2189   -6.9361 H           1 ACR       0.0679
     59 H15       -18.6132   -7.1962   -6.5505 H           1 ACR       0.0903
     60 H16       -21.3707   -6.0456   -6.2329 H           1 ACR       0.0652
     61 H17       -21.6121   -7.5917   -4.3685 H           1 ACR       0.0257
     62 H18       -19.8922   -8.0209   -4.4170 H           1 ACR       0.0257
     63 H19       -20.9535   -8.4799   -5.7461 H           1 ACR       0.0257
     64 H20       -20.4039   -5.6887   -8.3215 H           1 ACR       0.2029
     65 H21       -18.9435   -6.2916   -8.7975 H           1 ACR       0.2029
     66 H22       -18.2627   -2.9442   -5.2273 H           1 ACR       0.2101
     67 H23       -16.9740   -4.1693   -7.5226 H           1 ACR       0.2102
     68 H24       -19.8706   -3.8539    2.0143 H           1 ACR       0.0938
     69 H25       -20.5955   -5.6812    0.5527 H           1 ACR       0.0671
     70 H26       -17.9370   -5.3086   -0.9307 H           1 ACR       0.0648
     71 H27       -20.7080   -4.8051   -2.1224 H           1 ACR       0.0651
     72 H28       -18.8014   -2.5918   -1.2464 H           1 ACR       0.0647
     73 H29       -21.4493   -2.6255   -2.6216 H           1 ACR       0.0584
     74 H30       -20.0771   -1.5071   -2.7583 H           1 ACR       0.0584
     75 H31       -19.3065   -6.2459    2.2328 H           1 ACR       0.2101
     76 H32       -20.2064   -6.9425   -1.3953 H           1 ACR       0.2100
     77 H33       -20.7807   -0.9702   -0.4490 H           1 ACR       0.2095
     78 H34       -15.1670    0.7162    2.2470 H           1 ACR       0.0935
     79 H35       -17.5606    0.3990    2.5043 H           1 ACR       0.0671
     80 H36       -16.9863   -2.5026    3.3369 H           1 ACR       0.0648
     81 H37       -18.3226   -1.4859    0.7770 H           1 ACR       0.0651
     82 H38       -15.5511   -2.7606    1.0406 H           1 ACR       0.0647
     83 H39       -16.7977   -3.1538   -1.1582 H           1 ACR       0.0584
     84 H40       -15.2316   -2.3478   -1.2920 H           1 ACR       0.0584
     85 H41       -13.7902   -1.1286    2.2887 H           1 ACR       0.2126
     86 H42       -16.8934    0.9355    4.3820 H           1 ACR       0.2101
     87 H43       -18.7510   -1.6705    4.3120 H           1 ACR       0.2100
     88 H44       -16.9667   -1.4554   -2.5312 H           1 ACR       0.2095
@<TRIPOS>BOND
     1     1     2   1
     2     1     7   1
     3    18     1   1
     4     2     3   1
     5     2     8   1
     6     3     4   1
     7     3     9   1
     8     5     4   1
     9     4    10   1
    10     5     6   1
    11     7     5   2
    12     6    11   1
    13    12    13   1
    14    12    21   1
    15    30    12   1
    16    13    14   1
    17    13    19   1
    18    14    15   1
    19    14    20   1
    20    16    15   1
    21    15    18   1
    22    16    17   1
    23    21    16   1
    24    22    23   1
    25    22    31   1
    26    42    22   1
    27    23    24   1
    28    23    28   1
    29    24    25   1
    30    24    29   1
    31    26    25   1
    32    25    30   1
    33    26    27   1
    34    31    26   1
    35    27    32   1
    36    34    33   1
    37    33    39   1
    38    33    43   1
    39    35    34   1
    40    34    40   1
    41    36    35   1
    42    35    41   1
    43    36    37   1
    44    36    42   1
    45    37    38   1
    46    37    43   1
    47    38    44   1
    48     1    45   1
    49     2    46   1
    50     3    47   1
    51     4    48   1
    52     6    49   1
    53     6    50   1
    54     7    51   1
    55     8    52   1
    56     9    53   1
    57    10    54   1
    58    11    55   1
    59    12    56   1
    60    13    57   1
    61    14    58   1
    62    15    59   1
    63    16    60   1
    64    17    61   1
    65    17    62   1
    66    17    63   1
    67    18    64   1
    68    18    65   1
    69    19    66   1
    70    20    67   1
    71    22    68   1
    72    23    69   1
    73    24    70   1
    74    25    71   1
    75    26    72   1
    76    27    73   1
    77    27    74   1
    78    28    75   1
    79    29    76   1
    80    32    77   1
    81    33    78   1
    82    34    79   1
    83    35    80   1
    84    36    81   1
    85    37    82   1
    86    38    83   1
    87    38    84   1
    88    39    85   1
    89    40    86   1
    90    41    87   1
    91    44    88   1
@<TRIPOS>SUBSTRUCTURE
     1  ACR      1

