@<TRIPOS>MOLECULE
2qmj_ligand_061
    88    91
SMALL
GAST_HUCK
****
This file was generated by PARSER (from files_GN.cpp)

@<TRIPOS>ATOM
      1 C1A       -20.2778   -7.2648   -9.3402 C.3         1 ACR       0.0141
      2 C2A       -20.4653   -8.6877   -9.9397 C.3         1 ACR       0.1303
      3 C3A       -19.7159   -8.7694  -11.2959 C.3         1 ACR       0.1215
      4 C4A       -20.3075   -7.7160  -12.2767 C.3         1 ACR       0.1112
      5 C5A       -20.6538   -6.4164  -11.6593 C.2         1 ACR      -0.0200
      6 C6A       -21.2424   -5.3602  -12.4947 C.3         1 ACR       0.0719
      7 C7A       -20.5936   -6.2224  -10.3192 C.2         1 ACR      -0.0543
      8 O2A       -20.0202   -9.6731   -9.0154 O.3         1 ACR      -0.3821
      9 O3A       -19.7669  -10.0873  -11.8362 O.3         1 ACR      -0.3843
     10 O4A       -19.3601   -7.5479  -13.3367 O.3         1 ACR      -0.3780
     11 O6A       -22.6631   -5.3768  -12.3824 O.3         1 ACR      -0.3839
     12 C1B       -19.4490   -6.1967   -4.6239 C.3         1 ACR       0.1886
     13 C2B       -18.9987   -5.0134   -5.5201 C.3         1 ACR       0.1370
     14 C3B       -19.2597   -5.3454   -7.0152 C.3         1 ACR       0.1304
     15 C4B       -18.6123   -6.7031   -7.4163 C.3         1 ACR       0.0341
     16 C5B       -18.9714   -7.8384   -6.3984 C.3         1 ACR       0.1038
     17 C6B       -18.0870   -9.1074   -6.5338 C.3         1 ACR      -0.0332
     18 N4B       -18.8807   -7.0769   -8.8340 N.4         1 ACR       0.2433
     19 O2B       -19.7097   -3.8340   -5.1172 O.3         1 ACR      -0.3840
     20 O3B       -18.7734   -4.3059   -7.8699 O.3         1 ACR      -0.3834
     21 O5B       -18.7980   -7.4128   -5.0300 O.3         1 ACR      -0.3401
     22 C1C       -23.7646   -6.4341   -2.2562 C.3         1 ACR       0.1884
     23 C2C       -22.2789   -6.3898   -1.8047 C.3         1 ACR       0.1341
     24 C3C       -21.4698   -7.5084   -2.5215 C.3         1 ACR       0.1144
     25 C4C       -21.6081   -7.4024   -4.0745 C.3         1 ACR       0.1184
     26 C5C       -23.1009   -7.2198   -4.5251 C.3         1 ACR       0.1134
     27 C6C       -23.8915   -8.5280   -4.8012 C.3         1 ACR       0.0730
     28 O2C       -21.7209   -5.1073   -2.1073 O.3         1 ACR      -0.3841
     29 O3C       -21.8877   -8.7900   -2.0494 O.3         1 ACR      -0.3864
     30 O4C       -20.8919   -6.2652   -4.6314 O.3         1 ACR      -0.3401
     31 O5C       -23.8322   -6.2844   -3.6878 O.3         1 ACR      -0.3405
     32 O6C       -24.1828   -9.3120   -3.6483 O.3         1 ACR      -0.3924
     33 C1D       -26.5052   -4.3985    2.0078 C.3         1 ACR       0.1854
     34 C2D       -24.9653   -4.1836    1.9365 C.3         1 ACR       0.1339
     35 C3D       -24.4997   -4.1613    0.4558 C.3         1 ACR       0.1144
     36 C4D       -24.9472   -5.4461   -0.2864 C.3         1 ACR       0.1184
     37 C5D       -26.4953   -5.6005   -0.1378 C.3         1 ACR       0.1134
     38 C6D       -27.0392   -6.9344   -0.7139 C.3         1 ACR       0.0730
     39 O1D       -27.2270   -3.2583    1.5264 O.3         1 ACR      -0.3649
     40 O2D       -24.5960   -2.9877    2.6284 O.3         1 ACR      -0.3841
     41 O3D       -23.0852   -4.0251    0.3946 O.3         1 ACR      -0.3864
     42 O4D       -24.5523   -5.3603   -1.6758 O.3         1 ACR      -0.3401
     43 O5D       -26.8877   -5.5758    1.2585 O.3         1 ACR      -0.3407
     44 O6D       -26.8186   -7.0426   -2.1141 O.3         1 ACR      -0.3924
     45 H1        -21.0032   -7.1909   -8.5294 H           1 ACR       0.0950
     46 H2        -21.5286   -8.8636  -10.1346 H           1 ACR       0.0694
     47 H3        -18.6509   -8.5497  -11.1184 H           1 ACR       0.0671
     48 H4        -21.2196   -8.1275  -12.7085 H           1 ACR       0.0769
     49 H5        -21.0048   -5.4863  -13.5559 H           1 ACR       0.0706
     50 H6        -20.8654   -4.3844  -12.1892 H           1 ACR       0.0706
     51 H7        -20.8010   -5.3241   -9.9606 H           1 ACR       0.0299
     52 H8        -20.7193   -9.7132   -8.3347 H           1 ACR       0.2103
     53 H9        -20.1922  -10.0122  -12.7170 H           1 ACR       0.2102
     54 H10       -19.8758   -7.2460  -14.1140 H           1 ACR       0.2130
     55 H11       -22.8535   -5.3677  -11.4276 H           1 ACR       0.2125
     56 H12       -19.1173   -5.9745   -3.6079 H           1 ACR       0.0938
     57 H13       -17.9306   -4.8344   -5.3694 H           1 ACR       0.0672
     58 H14       -20.3403   -5.3958   -7.1575 H           1 ACR       0.0679
     59 H15       -17.5333   -6.5634   -7.3598 H           1 ACR       0.0903
     60 H16       -20.0183   -8.1361   -6.5444 H           1 ACR       0.0652
     61 H17       -18.4731   -9.8966   -5.8866 H           1 ACR       0.0257
     62 H18       -17.0632   -8.8782   -6.2361 H           1 ACR       0.0257
     63 H19       -18.0904   -9.4669   -7.5581 H           1 ACR       0.0257
     64 H20       -18.4275   -6.3814   -9.4244 H           1 ACR       0.2029
     65 H21       -18.3822   -7.9562   -9.0004 H           1 ACR       0.2029
     66 H22       -19.4841   -3.1486   -5.7646 H           1 ACR       0.2101
     67 H23       -18.0975   -3.8071   -7.3502 H           1 ACR       0.2102
     68 H24       -24.2160   -7.3851   -1.9767 H           1 ACR       0.0938
     69 H25       -22.2172   -6.5316   -0.7204 H           1 ACR       0.0671
     70 H26       -20.4210   -7.4226   -2.2370 H           1 ACR       0.0648
     71 H27       -21.2027   -8.3104   -4.5332 H           1 ACR       0.0651
     72 H28       -23.0784   -6.7358   -5.5001 H           1 ACR       0.0647
     73 H29       -23.3354   -9.1507   -5.5023 H           1 ACR       0.0584
     74 H30       -24.8410   -8.2661   -5.2720 H           1 ACR       0.0584
     75 H31       -21.1639   -4.8848   -1.3291 H           1 ACR       0.2101
     76 H32       -21.1948   -9.4212   -2.3628 H           1 ACR       0.2100
     77 H33       -23.3157   -9.6134   -3.3251 H           1 ACR       0.2095
     78 H34       -26.7949   -4.5583    3.0476 H           1 ACR       0.0935
     79 H35       -24.4798   -5.0134    2.4596 H           1 ACR       0.0671
     80 H36       -24.9492   -3.2860   -0.0260 H           1 ACR       0.0648
     81 H37       -24.4702   -6.2952    0.2138 H           1 ACR       0.0651
     82 H38       -26.9983   -4.7855   -0.6710 H           1 ACR       0.0647
     83 H39       -28.1202   -7.0064   -0.5288 H           1 ACR       0.0584
     84 H40       -26.5565   -7.7795   -0.2057 H           1 ACR       0.0584
     85 H41       -28.1745   -3.5298    1.5697 H           1 ACR       0.2126
     86 H42       -24.9761   -2.2494    2.1005 H           1 ACR       0.2101
     87 H43       -22.9194   -3.5670   -0.4533 H           1 ACR       0.2100
     88 H44       -27.5759   -6.5848   -2.5334 H           1 ACR       0.2095
@<TRIPOS>BOND
     1     1     2   1
     2     1     7   1
     3    18     1   1
     4     2     3   1
     5     2     8   1
     6     3     4   1
     7     3     9   1
     8     5     4   1
     9     4    10   1
    10     5     6   1
    11     7     5   2
    12     6    11   1
    13    12    13   1
    14    12    21   1
    15    30    12   1
    16    13    14   1
    17    13    19   1
    18    14    15   1
    19    14    20   1
    20    16    15   1
    21    15    18   1
    22    16    17   1
    23    21    16   1
    24    22    23   1
    25    22    31   1
    26    42    22   1
    27    23    24   1
    28    23    28   1
    29    24    25   1
    30    24    29   1
    31    26    25   1
    32    25    30   1
    33    26    27   1
    34    31    26   1
    35    27    32   1
    36    34    33   1
    37    33    39   1
    38    33    43   1
    39    35    34   1
    40    34    40   1
    41    36    35   1
    42    35    41   1
    43    36    37   1
    44    36    42   1
    45    37    38   1
    46    37    43   1
    47    38    44   1
    48     1    45   1
    49     2    46   1
    50     3    47   1
    51     4    48   1
    52     6    49   1
    53     6    50   1
    54     7    51   1
    55     8    52   1
    56     9    53   1
    57    10    54   1
    58    11    55   1
    59    12    56   1
    60    13    57   1
    61    14    58   1
    62    15    59   1
    63    16    60   1
    64    17    61   1
    65    17    62   1
    66    17    63   1
    67    18    64   1
    68    18    65   1
    69    19    66   1
    70    20    67   1
    71    22    68   1
    72    23    69   1
    73    24    70   1
    74    25    71   1
    75    26    72   1
    76    27    73   1
    77    27    74   1
    78    28    75   1
    79    29    76   1
    80    32    77   1
    81    33    78   1
    82    34    79   1
    83    35    80   1
    84    36    81   1
    85    37    82   1
    86    38    83   1
    87    38    84   1
    88    39    85   1
    89    40    86   1
    90    41    87   1
    91    44    88   1
@<TRIPOS>SUBSTRUCTURE
     1  ACR      1

