@<TRIPOS>MOLECULE
2qmj_ligand_019
    88    91
SMALL
GAST_HUCK
****
This file was generated by PARSER (from files_GN.cpp)

@<TRIPOS>ATOM
      1 C1A       -19.6382   -6.1416  -10.8390 C.3         1 ACR       0.0141
      2 C2A       -20.8126   -5.7624  -11.7894 C.3         1 ACR       0.1303
      3 C3A       -21.7759   -6.9668  -11.9454 C.3         1 ACR       0.1215
      4 C4A       -21.0034   -8.2511  -12.3955 C.3         1 ACR       0.1112
      5 C5A       -19.6242   -8.3905  -11.9018 C.2         1 ACR      -0.0200
      6 C6A       -18.8689   -9.6248  -12.1342 C.3         1 ACR       0.0719
      7 C7A       -18.9787   -7.3579  -11.3165 C.2         1 ACR      -0.0543
      8 O2A       -21.4757   -4.5880  -11.3151 O.3         1 ACR      -0.3821
      9 O3A       -22.7968   -6.6338  -12.8855 O.3         1 ACR      -0.3843
     10 O4A       -21.7991   -9.3745  -12.0146 O.3         1 ACR      -0.3780
     11 O6A       -17.6972   -9.3704  -12.9030 O.3         1 ACR      -0.3839
     12 C1B       -18.0557   -6.9005   -5.6161 C.3         1 ACR       0.1886
     13 C2B       -17.5514   -5.7783   -6.5615 C.3         1 ACR       0.1370
     14 C3B       -18.6408   -5.3856   -7.5943 C.3         1 ACR       0.1304
     15 C4B       -19.0737   -6.6545   -8.3848 C.3         1 ACR       0.0341
     16 C5B       -19.5616   -7.7419   -7.3740 C.3         1 ACR       0.1038
     17 C6B       -19.9170   -9.1011   -8.0465 C.3         1 ACR      -0.0332
     18 N4B       -20.0972   -6.3225   -9.4226 N.4         1 ACR       0.2433
     19 O2B       -17.1069   -4.6548   -5.8041 O.3         1 ACR      -0.3840
     20 O3B       -18.1261   -4.3936   -8.4698 O.3         1 ACR      -0.3834
     21 O5B       -18.5276   -8.0185   -6.3949 O.3         1 ACR      -0.3401
     22 C1C       -17.1678   -5.2494   -1.0954 C.3         1 ACR       0.1884
     23 C2C       -17.9032   -6.6171   -1.0294 C.3         1 ACR       0.1341
     24 C3C       -18.1596   -7.1493   -2.4676 C.3         1 ACR       0.1144
     25 C4C       -18.9209   -6.0973   -3.3417 C.3         1 ACR       0.1184
     26 C5C       -18.2768   -4.6790   -3.2052 C.3         1 ACR       0.1134
     27 C6C       -19.2045   -3.5765   -3.7854 C.3         1 ACR       0.0730
     28 O2C       -17.1297   -7.5527   -0.2783 O.3         1 ACR      -0.3841
     29 O3C       -18.9063   -8.3696   -2.4054 O.3         1 ACR      -0.3864
     30 O4C       -19.1249   -6.5079   -4.7239 O.3         1 ACR      -0.3401
     31 O5C       -17.9633   -4.3092   -1.8373 O.3         1 ACR      -0.3405
     32 O6C       -18.5356   -2.3195   -3.7591 O.3         1 ACR      -0.3924
     33 C1D       -11.7516   -5.0681   -0.6996 C.3         1 ACR       0.1854
     34 C2D       -12.6960   -5.4815    0.4620 C.3         1 ACR       0.1339
     35 C3D       -14.0963   -5.9033   -0.0666 C.3         1 ACR       0.1144
     36 C4D       -14.6886   -4.8562   -1.0600 C.3         1 ACR       0.1184
     37 C5D       -13.6321   -4.5276   -2.1649 C.3         1 ACR       0.1134
     38 C6D       -14.0751   -3.4209   -3.1522 C.3         1 ACR       0.0730
     39 O1D       -11.2550   -6.1895   -1.4359 O.3         1 ACR      -0.3649
     40 O2D       -12.0975   -6.5396    1.2102 O.3         1 ACR      -0.3841
     41 O3D       -14.9835   -6.1242    1.0321 O.3         1 ACR      -0.3864
     42 O4D       -15.8593   -5.4087   -1.6991 O.3         1 ACR      -0.3401
     43 O5D       -12.3849   -4.1077   -1.5697 O.3         1 ACR      -0.3407
     44 O6D       -14.9892   -2.5069   -2.5533 O.3         1 ACR      -0.3924
     45 H1        -18.9178   -5.3154  -10.8735 H           1 ACR       0.0950
     46 H2        -20.4037   -5.5128  -12.7715 H           1 ACR       0.0694
     47 H3        -22.2642   -7.1472  -10.9842 H           1 ACR       0.0671
     48 H4        -20.9473   -8.2405  -13.4879 H           1 ACR       0.0769
     49 H5        -19.4507  -10.3837  -12.6564 H           1 ACR       0.0706
     50 H6        -18.5738  -10.0534  -11.1741 H           1 ACR       0.0706
     51 H7        -18.0066   -7.4404  -11.1181 H           1 ACR       0.0299
     52 H8        -22.2889   -4.9103  -10.8831 H           1 ACR       0.2103
     53 H9        -23.2781   -7.4695  -13.0476 H           1 ACR       0.2102
     54 H10       -21.7221  -10.0050  -12.7594 H           1 ACR       0.2130
     55 H11       -17.9994   -9.4279  -13.8323 H           1 ACR       0.2125
     56 H12       -17.1891   -7.2522   -5.0668 H           1 ACR       0.0938
     57 H13       -16.6747   -6.1522   -7.0999 H           1 ACR       0.0672
     58 H14       -19.5038   -4.9569   -7.0768 H           1 ACR       0.0679
     59 H15       -18.1737   -7.0582   -8.8659 H           1 ACR       0.0903
     60 H16       -20.4643   -7.3878   -6.8663 H           1 ACR       0.0652
     61 H17       -20.2011   -9.8236   -7.2787 H           1 ACR       0.0257
     62 H18       -19.0570   -9.4936   -8.5959 H           1 ACR       0.0257
     63 H19       -20.7577   -8.9919   -8.7320 H           1 ACR       0.0257
     64 H20       -20.7936   -7.0719   -9.4370 H           1 ACR       0.2029
     65 H21       -20.5909   -5.4750   -9.1177 H           1 ACR       0.2029
     66 H22       -17.1883   -3.8849   -6.4173 H           1 ACR       0.2101
     67 H23       -17.2177   -4.6909   -8.6891 H           1 ACR       0.2102
     68 H24       -17.0984   -4.8728   -0.0676 H           1 ACR       0.0938
     69 H25       -18.8604   -6.4854   -0.5119 H           1 ACR       0.0671
     70 H26       -17.1848   -7.3836   -2.8936 H           1 ACR       0.0648
     71 H27       -19.9236   -6.0246   -2.9063 H           1 ACR       0.0651
     72 H28       -17.3441   -4.6881   -3.7862 H           1 ACR       0.0647
     73 H29       -20.1105   -3.5115   -3.1937 H           1 ACR       0.0584
     74 H30       -19.4747   -3.7931   -4.8200 H           1 ACR       0.0584
     75 H31       -17.1640   -7.2272    0.6476 H           1 ACR       0.2101
     76 H32       -18.8611   -8.7342   -3.3152 H           1 ACR       0.2100
     77 H33       -19.1783   -1.6785   -4.1279 H           1 ACR       0.2095
     78 H34       -10.8754   -4.5812   -0.2688 H           1 ACR       0.0935
     79 H35       -12.8188   -4.6234    1.1276 H           1 ACR       0.0671
     80 H36       -13.9961   -6.8619   -0.5823 H           1 ACR       0.0648
     81 H37       -14.9210   -3.9346   -0.5151 H           1 ACR       0.0651
     82 H38       -13.4596   -5.4256   -2.7692 H           1 ACR       0.0647
     83 H39       -14.5442   -3.8698   -4.0249 H           1 ACR       0.0584
     84 H40       -13.1944   -2.8643   -3.4916 H           1 ACR       0.0584
     85 H41       -12.0426   -6.6960   -1.7189 H           1 ACR       0.2126
     86 H42       -12.6399   -6.6292    2.0220 H           1 ACR       0.2101
     87 H43       -15.0816   -5.2551    1.4760 H           1 ACR       0.2100
     88 H44       -15.1228   -1.8094   -3.2286 H           1 ACR       0.2095
@<TRIPOS>BOND
     1     1     2   1
     2     1     7   1
     3    18     1   1
     4     2     3   1
     5     2     8   1
     6     3     4   1
     7     3     9   1
     8     5     4   1
     9     4    10   1
    10     5     6   1
    11     7     5   2
    12     6    11   1
    13    12    13   1
    14    12    21   1
    15    30    12   1
    16    13    14   1
    17    13    19   1
    18    14    15   1
    19    14    20   1
    20    16    15   1
    21    15    18   1
    22    16    17   1
    23    21    16   1
    24    22    23   1
    25    22    31   1
    26    42    22   1
    27    23    24   1
    28    23    28   1
    29    24    25   1
    30    24    29   1
    31    26    25   1
    32    25    30   1
    33    26    27   1
    34    31    26   1
    35    27    32   1
    36    34    33   1
    37    33    39   1
    38    33    43   1
    39    35    34   1
    40    34    40   1
    41    36    35   1
    42    35    41   1
    43    36    37   1
    44    36    42   1
    45    37    38   1
    46    37    43   1
    47    38    44   1
    48     1    45   1
    49     2    46   1
    50     3    47   1
    51     4    48   1
    52     6    49   1
    53     6    50   1
    54     7    51   1
    55     8    52   1
    56     9    53   1
    57    10    54   1
    58    11    55   1
    59    12    56   1
    60    13    57   1
    61    14    58   1
    62    15    59   1
    63    16    60   1
    64    17    61   1
    65    17    62   1
    66    17    63   1
    67    18    64   1
    68    18    65   1
    69    19    66   1
    70    20    67   1
    71    22    68   1
    72    23    69   1
    73    24    70   1
    74    25    71   1
    75    26    72   1
    76    27    73   1
    77    27    74   1
    78    28    75   1
    79    29    76   1
    80    32    77   1
    81    33    78   1
    82    34    79   1
    83    35    80   1
    84    36    81   1
    85    37    82   1
    86    38    83   1
    87    38    84   1
    88    39    85   1
    89    40    86   1
    90    41    87   1
    91    44    88   1
@<TRIPOS>SUBSTRUCTURE
     1  ACR      1

