@<TRIPOS>MOLECULE
2qmj_ligand_050
    88    91
SMALL
GAST_HUCK
****
This file was generated by PARSER (from files_GN.cpp)

@<TRIPOS>ATOM
      1 C1A       -20.5913   -7.8241  -10.1995 C.3         1 ACR       0.0141
      2 C2A       -19.6021   -8.4182  -11.2545 C.3         1 ACR       0.1303
      3 C3A       -19.5127   -7.5119  -12.5052 C.3         1 ACR       0.1215
      4 C4A       -20.9208   -7.2375  -13.1107 C.3         1 ACR       0.1112
      5 C5A       -21.9891   -7.0259  -12.1273 C.2         1 ACR      -0.0200
      6 C6A       -23.3235   -6.6109  -12.5713 C.3         1 ACR       0.0719
      7 C7A       -21.8020   -7.2832  -10.8129 C.2         1 ACR      -0.0543
      8 O2A       -18.2962   -8.6233  -10.7201 O.3         1 ACR      -0.3821
      9 O3A       -18.6517   -8.0907  -13.4892 O.3         1 ACR      -0.3843
     10 O4A       -20.8210   -6.0862  -13.9547 O.3         1 ACR      -0.3780
     11 O6A       -23.6115   -5.2665  -12.1962 O.3         1 ACR      -0.3839
     12 C1B       -18.9637   -6.5331   -5.1464 C.3         1 ACR       0.1886
     13 C2B       -18.2654   -5.5663   -6.1389 C.3         1 ACR       0.1370
     14 C3B       -19.0272   -5.5330   -7.4918 C.3         1 ACR       0.1304
     15 C4B       -19.2729   -6.9584   -8.0940 C.3         1 ACR       0.0341
     16 C5B       -19.9164   -7.8776   -6.9870 C.3         1 ACR       0.1038
     17 C6B       -19.9852   -9.3964   -7.3026 C.3         1 ACR      -0.0332
     18 N4B       -20.0530   -6.7235   -9.3480 N.4         1 ACR       0.2433
     19 O2B       -18.1865   -4.2673   -5.5429 O.3         1 ACR      -0.3840
     20 O3B       -18.3137   -4.7000   -8.4114 O.3         1 ACR      -0.3834
     21 O5B       -19.1308   -7.8182   -5.7710 O.3         1 ACR      -0.3401
     22 C1C       -22.1746   -6.3507   -0.9248 C.3         1 ACR       0.1884
     23 C2C       -21.0729   -7.4131   -1.1549 C.3         1 ACR       0.1341
     24 C3C       -20.1545   -7.0092   -2.3418 C.3         1 ACR       0.1144
     25 C4C       -20.9689   -6.6765   -3.6322 C.3         1 ACR       0.1184
     26 C5C       -22.1964   -5.7621   -3.3069 C.3         1 ACR       0.1134
     27 C6C       -23.2163   -5.6978   -4.4711 C.3         1 ACR       0.0730
     28 O2C       -20.3159   -7.5709    0.0495 O.3         1 ACR      -0.3841
     29 O3C       -19.2285   -8.0734   -2.5719 O.3         1 ACR      -0.3864
     30 O4C       -20.1988   -5.9757   -4.6407 O.3         1 ACR      -0.3401
     31 O5C       -22.9344   -6.1957   -2.1402 O.3         1 ACR      -0.3405
     32 O6C       -24.0728   -4.5664   -4.3030 O.3         1 ACR      -0.3924
     33 C1D       -20.3398   -2.9862    2.0734 C.3         1 ACR       0.1854
     34 C2D       -20.8490   -4.4180    2.3753 C.3         1 ACR       0.1339
     35 C3D       -22.2789   -4.6236    1.8009 C.3         1 ACR       0.1144
     36 C4D       -22.3640   -4.1965    0.3024 C.3         1 ACR       0.1184
     37 C5D       -21.7695   -2.7727    0.0782 C.3         1 ACR       0.1134
     38 C6D       -22.7036   -1.5956    0.4686 C.3         1 ACR       0.0730
     39 O1D       -18.9726   -2.8428    2.4396 O.3         1 ACR      -0.3649
     40 O2D       -19.9649   -5.3976    1.8324 O.3         1 ACR      -0.3841
     41 O3D       -23.2309   -3.8885    2.5709 O.3         1 ACR      -0.3864
     42 O4D       -21.5739   -5.1071   -0.4949 O.3         1 ACR      -0.3401
     43 O5D       -20.4543   -2.6601    0.6736 O.3         1 ACR      -0.3407
     44 O6D       -22.3883   -0.4502   -0.3139 O.3         1 ACR      -0.3924
     45 H1        -20.9097   -8.6540   -9.5761 H           1 ACR       0.0950
     46 H2        -19.9757   -9.3955  -11.5734 H           1 ACR       0.0694
     47 H3        -19.0682   -6.5627  -12.1958 H           1 ACR       0.0671
     48 H4        -21.2120   -8.0865  -13.7392 H           1 ACR       0.0769
     49 H5        -24.0841   -7.2659  -12.1405 H           1 ACR       0.0706
     50 H6        -23.4260   -6.6732  -13.6557 H           1 ACR       0.0706
     51 H7        -22.5635   -7.1133  -10.1932 H           1 ACR       0.0299
     52 H8        -18.3797   -9.3890  -10.1098 H           1 ACR       0.2103
     53 H9        -19.1032   -8.9028  -13.8139 H           1 ACR       0.2102
     54 H10       -20.0806   -6.2695  -14.5690 H           1 ACR       0.2130
     55 H11       -23.4300   -5.2187  -11.2380 H           1 ACR       0.2125
     56 H12       -18.2798   -6.6631   -4.3051 H           1 ACR       0.0938
     57 H13       -17.2437   -5.9232   -6.3151 H           1 ACR       0.0672
     58 H14       -19.9908   -5.0457   -7.3124 H           1 ACR       0.0679
     59 H15       -18.2974   -7.3730   -8.3519 H           1 ACR       0.0903
     60 H16       -20.9337   -7.5238   -6.7789 H           1 ACR       0.0652
     61 H17       -20.9294   -9.6563   -7.7763 H           1 ACR       0.0257
     62 H18       -19.9449   -9.9901   -6.3845 H           1 ACR       0.0257
     63 H19       -19.1566   -9.7008   -7.9439 H           1 ACR       0.0257
     64 H20       -20.8347   -6.1138   -9.0890 H           1 ACR       0.2029
     65 H21       -19.4516   -6.1615   -9.9584 H           1 ACR       0.2029
     66 H22       -17.7452   -3.6989   -6.2054 H           1 ACR       0.2101
     67 H23       -17.4333   -5.1265   -8.5227 H           1 ACR       0.2102
     68 H24       -22.8500   -6.7348   -0.1533 H           1 ACR       0.0938
     69 H25       -21.5578   -8.3703   -1.3787 H           1 ACR       0.0671
     70 H26       -19.5768   -6.1270   -2.0565 H           1 ACR       0.0648
     71 H27       -21.3456   -7.6126   -4.0472 H           1 ACR       0.0651
     72 H28       -21.8366   -4.7432   -3.1247 H           1 ACR       0.0647
     73 H29       -23.8276   -6.6080   -4.4827 H           1 ACR       0.0584
     74 H30       -22.6989   -5.6032   -5.4317 H           1 ACR       0.0584
     75 H31       -19.7616   -8.3671   -0.0989 H           1 ACR       0.2101
     76 H32       -19.7680   -8.8434   -2.8575 H           1 ACR       0.2100
     77 H33       -24.8419   -4.7204   -4.8911 H           1 ACR       0.2095
     78 H34       -20.8967   -2.2656    2.6723 H           1 ACR       0.0935
     79 H35       -20.8712   -4.5724    3.4567 H           1 ACR       0.0671
     80 H36       -22.5525   -5.6787    1.8958 H           1 ACR       0.0648
     81 H37       -23.4106   -4.2066   -0.0243 H           1 ACR       0.0651
     82 H38       -21.6164   -2.6731   -1.0014 H           1 ACR       0.0647
     83 H39       -22.6165   -1.3323    1.5219 H           1 ACR       0.0584
     84 H40       -23.7466   -1.8520    0.2753 H           1 ACR       0.0584
     85 H41       -18.4542   -3.1530    1.6666 H           1 ACR       0.2126
     86 H42       -19.1531   -5.3546    2.3797 H           1 ACR       0.2101
     87 H43       -23.2346   -4.3118    3.4596 H           1 ACR       0.2100
     88 H44       -21.6353   -0.0191    0.1469 H           1 ACR       0.2095
@<TRIPOS>BOND
     1     1     2   1
     2     1     7   1
     3    18     1   1
     4     2     3   1
     5     2     8   1
     6     3     4   1
     7     3     9   1
     8     5     4   1
     9     4    10   1
    10     5     6   1
    11     7     5   2
    12     6    11   1
    13    12    13   1
    14    12    21   1
    15    30    12   1
    16    13    14   1
    17    13    19   1
    18    14    15   1
    19    14    20   1
    20    16    15   1
    21    15    18   1
    22    16    17   1
    23    21    16   1
    24    22    23   1
    25    22    31   1
    26    42    22   1
    27    23    24   1
    28    23    28   1
    29    24    25   1
    30    24    29   1
    31    26    25   1
    32    25    30   1
    33    26    27   1
    34    31    26   1
    35    27    32   1
    36    34    33   1
    37    33    39   1
    38    33    43   1
    39    35    34   1
    40    34    40   1
    41    36    35   1
    42    35    41   1
    43    36    37   1
    44    36    42   1
    45    37    38   1
    46    37    43   1
    47    38    44   1
    48     1    45   1
    49     2    46   1
    50     3    47   1
    51     4    48   1
    52     6    49   1
    53     6    50   1
    54     7    51   1
    55     8    52   1
    56     9    53   1
    57    10    54   1
    58    11    55   1
    59    12    56   1
    60    13    57   1
    61    14    58   1
    62    15    59   1
    63    16    60   1
    64    17    61   1
    65    17    62   1
    66    17    63   1
    67    18    64   1
    68    18    65   1
    69    19    66   1
    70    20    67   1
    71    22    68   1
    72    23    69   1
    73    24    70   1
    74    25    71   1
    75    26    72   1
    76    27    73   1
    77    27    74   1
    78    28    75   1
    79    29    76   1
    80    32    77   1
    81    33    78   1
    82    34    79   1
    83    35    80   1
    84    36    81   1
    85    37    82   1
    86    38    83   1
    87    38    84   1
    88    39    85   1
    89    40    86   1
    90    41    87   1
    91    44    88   1
@<TRIPOS>SUBSTRUCTURE
     1  ACR      1

