@<TRIPOS>MOLECULE
2qmj_ligand_069
    88    91
SMALL
GAST_HUCK
****
This file was generated by PARSER (from files_GN.cpp)

@<TRIPOS>ATOM
      1 C1A       -20.4811   -7.5772  -10.1498 C.3         1 ACR       0.0141
      2 C2A       -19.3412   -7.2132  -11.1501 C.3         1 ACR       0.1303
      3 C3A       -19.6894   -7.7427  -12.5639 C.3         1 ACR       0.1215
      4 C4A       -21.0641   -7.1855  -13.0405 C.3         1 ACR       0.1112
      5 C5A       -22.0941   -7.0897  -12.0038 C.2         1 ACR      -0.0200
      6 C6A       -23.4594   -6.7363  -12.4031 C.3         1 ACR       0.0719
      7 C7A       -21.8057   -7.2607  -10.6937 C.2         1 ACR      -0.0543
      8 O2A       -19.1461   -5.7967  -11.1387 O.3         1 ACR      -0.3821
      9 O3A       -19.7147   -9.1706  -12.5095 O.3         1 ACR      -0.3843
     10 O4A       -20.8847   -5.8761  -13.5884 O.3         1 ACR      -0.3780
     11 O6A       -23.7961   -5.4044  -12.0344 O.3         1 ACR      -0.3839
     12 C1B       -17.7326   -6.9400   -5.3862 C.3         1 ACR       0.1886
     13 C2B       -17.6366   -5.7264   -6.3401 C.3         1 ACR       0.1370
     14 C3B       -18.8647   -5.6831   -7.2879 C.3         1 ACR       0.1304
     15 C4B       -19.0901   -7.0388   -8.0193 C.3         1 ACR       0.0341
     16 C5B       -19.0757   -8.2135   -6.9958 C.3         1 ACR       0.1038
     17 C6B       -19.0644   -9.6273   -7.6237 C.3         1 ACR      -0.0332
     18 N4B       -20.3617   -6.9451   -8.8029 N.4         1 ACR       0.2433
     19 O2B       -17.5307   -4.5204   -5.5861 O.3         1 ACR      -0.3840
     20 O3B       -18.6874   -4.6357   -8.2434 O.3         1 ACR      -0.3834
     21 O5B       -17.8977   -8.1455   -6.1619 O.3         1 ACR      -0.3401
     22 C1C       -19.6037   -6.6742   -0.8576 C.3         1 ACR       0.1884
     23 C2C       -18.1630   -6.9123   -1.3746 C.3         1 ACR       0.1341
     24 C3C       -18.1636   -8.0507   -2.4281 C.3         1 ACR       0.1144
     25 C4C       -19.2043   -7.7820   -3.5555 C.3         1 ACR       0.1184
     26 C5C       -20.6044   -7.3601   -2.9945 C.3         1 ACR       0.1134
     27 C6C       -21.5129   -8.5434   -2.5679 C.3         1 ACR       0.0730
     28 O2C       -17.6353   -5.7083   -1.9354 O.3         1 ACR      -0.3841
     29 O3C       -18.4222   -9.2993   -1.7871 O.3         1 ACR      -0.3864
     30 O4C       -18.7906   -6.7092   -4.4297 O.3         1 ACR      -0.3401
     31 O5C       -20.4854   -6.3560   -1.9556 O.3         1 ACR      -0.3405
     32 O6C       -22.7540   -8.0493   -2.0715 O.3         1 ACR      -0.3924
     33 C1D       -20.7598   -4.7559    4.0418 C.3         1 ACR       0.1854
     34 C2D       -20.3398   -6.2175    3.7435 C.3         1 ACR       0.1339
     35 C3D       -19.5878   -6.3039    2.3910 C.3         1 ACR       0.1144
     36 C4D       -20.4118   -5.6454    1.2424 C.3         1 ACR       0.1184
     37 C5D       -20.8633   -4.2049    1.6515 C.3         1 ACR       0.1134
     38 C6D       -21.8725   -3.5875    0.6494 C.3         1 ACR       0.0730
     39 O1D       -19.6284   -3.9347    4.3331 O.3         1 ACR      -0.3649
     40 O2D       -19.5369   -6.7388    4.8030 O.3         1 ACR      -0.3841
     41 O3D       -19.2841   -7.6676    2.1059 O.3         1 ACR      -0.3864
     42 O4D       -19.5959   -5.5567    0.0543 O.3         1 ACR      -0.3401
     43 O5D       -21.5199   -4.2116    2.9426 O.3         1 ACR      -0.3407
     44 O6D       -21.3295   -3.4775   -0.6606 O.3         1 ACR      -0.3924
     45 H1        -20.4681   -8.6592  -10.0084 H           1 ACR       0.0950
     46 H2        -18.4035   -7.6856  -10.8486 H           1 ACR       0.0694
     47 H3        -18.9055   -7.4573  -13.2727 H           1 ACR       0.0671
     48 H4        -21.4242   -7.8298  -13.8467 H           1 ACR       0.0769
     49 H5        -24.1807   -7.4145  -11.9406 H           1 ACR       0.0706
     50 H6        -23.5976   -6.8026  -13.4848 H           1 ACR       0.0706
     51 H7        -22.5530   -7.2164  -10.0416 H           1 ACR       0.0299
     52 H8        -18.4941   -5.6194  -11.8443 H           1 ACR       0.2103
     53 H9        -19.8585   -9.4935  -13.4230 H           1 ACR       0.2102
     54 H10       -20.2918   -5.9904  -14.3584 H           1 ACR       0.2130
     55 H11       -23.6521   -5.3559  -11.0708 H           1 ACR       0.2125
     56 H12       -16.7835   -7.0192   -4.8557 H           1 ACR       0.0938
     57 H13       -16.7281   -5.8233   -6.9401 H           1 ACR       0.0672
     58 H14       -19.7510   -5.4402   -6.7028 H           1 ACR       0.0679
     59 H15       -18.2324   -7.1671   -8.6680 H           1 ACR       0.0903
     60 H16       -19.9723   -8.1430   -6.3754 H           1 ACR       0.0652
     61 H17       -18.8558  -10.3779   -6.8613 H           1 ACR       0.0257
     62 H18       -18.2982   -9.6955   -8.3971 H           1 ACR       0.0257
     63 H19       -20.0365   -9.8661   -8.0549 H           1 ACR       0.0257
     64 H20       -21.0880   -7.3588   -8.2124 H           1 ACR       0.2029
     65 H21       -20.5923   -5.9530   -8.9048 H           1 ACR       0.2029
     66 H22       -17.4207   -3.8034   -6.2462 H           1 ACR       0.2101
     67 H23       -17.8719   -4.8639   -8.7331 H           1 ACR       0.2102
     68 H24       -19.9491   -7.5859   -0.3672 H           1 ACR       0.0938
     69 H25       -17.5222   -7.1959   -0.5336 H           1 ACR       0.0671
     70 H26       -17.1640   -8.1350   -2.8529 H           1 ACR       0.0648
     71 H27       -19.3346   -8.7011   -4.1344 H           1 ACR       0.0651
     72 H28       -21.1492   -6.8671   -3.8050 H           1 ACR       0.0647
     73 H29       -21.0423   -9.1462   -1.7902 H           1 ACR       0.0584
     74 H30       -21.7132   -9.1843   -3.4261 H           1 ACR       0.0584
     75 H31       -16.7153   -5.9259   -2.1982 H           1 ACR       0.2101
     76 H32       -18.3446   -9.9757   -2.4931 H           1 ACR       0.2100
     77 H33       -23.2735   -8.8468   -1.8405 H           1 ACR       0.2095
     78 H34       -21.4041   -4.7510    4.9199 H           1 ACR       0.0935
     79 H35       -21.2418   -6.8314    3.6849 H           1 ACR       0.0671
     80 H36       -18.6324   -5.7775    2.4816 H           1 ACR       0.0648
     81 H37       -21.3172   -6.2399    1.0659 H           1 ACR       0.0651
     82 H38       -19.9900   -3.5494    1.6980 H           1 ACR       0.0647
     83 H39       -22.1536   -2.5891    0.9838 H           1 ACR       0.0584
     84 H40       -22.7765   -4.2026    0.6054 H           1 ACR       0.0584
     85 H41       -20.0004   -3.0467    4.5207 H           1 ACR       0.2126
     86 H42       -18.7253   -6.1895    4.8123 H           1 ACR       0.2101
     87 H43       -20.1508   -8.1171    2.0077 H           1 ACR       0.2100
     88 H44       -22.0650   -3.1348   -1.2114 H           1 ACR       0.2095
@<TRIPOS>BOND
     1     1     2   1
     2     1     7   1
     3    18     1   1
     4     2     3   1
     5     2     8   1
     6     3     4   1
     7     3     9   1
     8     5     4   1
     9     4    10   1
    10     5     6   1
    11     7     5   2
    12     6    11   1
    13    12    13   1
    14    12    21   1
    15    30    12   1
    16    13    14   1
    17    13    19   1
    18    14    15   1
    19    14    20   1
    20    16    15   1
    21    15    18   1
    22    16    17   1
    23    21    16   1
    24    22    23   1
    25    22    31   1
    26    42    22   1
    27    23    24   1
    28    23    28   1
    29    24    25   1
    30    24    29   1
    31    26    25   1
    32    25    30   1
    33    26    27   1
    34    31    26   1
    35    27    32   1
    36    34    33   1
    37    33    39   1
    38    33    43   1
    39    35    34   1
    40    34    40   1
    41    36    35   1
    42    35    41   1
    43    36    37   1
    44    36    42   1
    45    37    38   1
    46    37    43   1
    47    38    44   1
    48     1    45   1
    49     2    46   1
    50     3    47   1
    51     4    48   1
    52     6    49   1
    53     6    50   1
    54     7    51   1
    55     8    52   1
    56     9    53   1
    57    10    54   1
    58    11    55   1
    59    12    56   1
    60    13    57   1
    61    14    58   1
    62    15    59   1
    63    16    60   1
    64    17    61   1
    65    17    62   1
    66    17    63   1
    67    18    64   1
    68    18    65   1
    69    19    66   1
    70    20    67   1
    71    22    68   1
    72    23    69   1
    73    24    70   1
    74    25    71   1
    75    26    72   1
    76    27    73   1
    77    27    74   1
    78    28    75   1
    79    29    76   1
    80    32    77   1
    81    33    78   1
    82    34    79   1
    83    35    80   1
    84    36    81   1
    85    37    82   1
    86    38    83   1
    87    38    84   1
    88    39    85   1
    89    40    86   1
    90    41    87   1
    91    44    88   1
@<TRIPOS>SUBSTRUCTURE
     1  ACR      1

