@<TRIPOS>MOLECULE
2qmj_ligand_039
    88    91
SMALL
GAST_HUCK
****
This file was generated by PARSER (from files_GN.cpp)

@<TRIPOS>ATOM
      1 C1A       -20.4264   -7.6270  -10.1111 C.3         1 ACR       0.0141
      2 C2A       -19.2888   -7.2541  -11.1142 C.3         1 ACR       0.1303
      3 C3A       -19.6473   -7.7694  -12.5309 C.3         1 ACR       0.1215
      4 C4A       -21.0175   -7.1919  -12.9969 C.3         1 ACR       0.1112
      5 C5A       -22.0435   -7.0839  -11.9487 C.2         1 ACR      -0.0200
      6 C6A       -23.4076   -6.7305  -12.3389 C.3         1 ACR       0.0719
      7 C7A       -21.7482   -7.2776  -10.6408 C.2         1 ACR      -0.0543
      8 O2A       -19.1087   -5.8393  -11.0884 O.3         1 ACR      -0.3821
      9 O3A       -19.6824   -9.2013  -12.4826 O.3         1 ACR      -0.3843
     10 O4A       -20.8226   -5.8891  -13.5526 O.3         1 ACR      -0.3780
     11 O6A       -23.7247   -5.3802  -12.0219 O.3         1 ACR      -0.3839
     12 C1B       -17.2769   -7.0221   -5.5989 C.3         1 ACR       0.1886
     13 C2B       -17.3704   -5.7620   -6.5090 C.3         1 ACR       0.1370
     14 C3B       -18.7070   -5.7418   -7.3018 C.3         1 ACR       0.1304
     15 C4B       -18.9508   -7.0881   -8.0424 C.3         1 ACR       0.0341
     16 C5B       -18.8382   -8.2639   -7.0193 C.3         1 ACR       0.1038
     17 C6B       -18.9503   -9.6724   -7.6435 C.3         1 ACR      -0.0332
     18 N4B       -20.2713   -7.0246   -8.7484 N.4         1 ACR       0.2433
     19 O2B       -17.2316   -4.5779   -5.7222 O.3         1 ACR      -0.3840
     20 O3B       -18.6903   -4.6646   -8.2427 O.3         1 ACR      -0.3834
     21 O5B       -17.5514   -8.2137   -6.3642 O.3         1 ACR      -0.3401
     22 C1C       -21.0260   -8.2860   -2.8880 C.3         1 ACR       0.1884
     23 C2C       -20.3967   -6.9090   -2.5174 C.3         1 ACR       0.1341
     24 C3C       -18.8751   -7.0407   -2.2088 C.3         1 ACR       0.1144
     25 C4C       -18.1351   -7.7837   -3.3579 C.3         1 ACR       0.1184
     26 C5C       -18.8418   -9.1460   -3.6783 C.3         1 ACR       0.1134
     27 C6C       -18.5536  -10.2865   -2.6599 C.3         1 ACR       0.0730
     28 O2C       -20.5759   -5.9898   -3.5998 O.3         1 ACR      -0.3841
     29 O3C       -18.6929   -7.6839   -0.9477 O.3         1 ACR      -0.3864
     30 O4C       -18.1778   -6.8667   -4.4831 O.3         1 ACR      -0.3401
     31 O5C       -20.2522   -8.9452   -3.9084 O.3         1 ACR      -0.3405
     32 O6C       -19.0381  -11.5233   -3.1781 O.3         1 ACR      -0.3924
     33 C1D       -24.8983   -5.7260   -1.0319 C.3         1 ACR       0.1854
     34 C2D       -24.9674   -7.2480   -0.7409 C.3         1 ACR       0.1339
     35 C3D       -23.7301   -7.9758   -1.3323 C.3         1 ACR       0.1144
     36 C4D       -23.5042   -7.6046   -2.8291 C.3         1 ACR       0.1184
     37 C5D       -23.5465   -6.0558   -3.0378 C.3         1 ACR       0.1134
     38 C6D       -23.5226   -5.6556   -4.5383 C.3         1 ACR       0.0730
     39 O1D       -23.8544   -5.0990   -0.2814 O.3         1 ACR      -0.3649
     40 O2D       -25.0517   -7.4870    0.6624 O.3         1 ACR      -0.3841
     41 O3D       -23.8830   -9.3912   -1.2006 O.3         1 ACR      -0.3864
     42 O4D       -22.3526   -8.2225   -3.4562 O.3         1 ACR      -0.3401
     43 O5D       -24.7394   -5.4843   -2.4449 O.3         1 ACR      -0.3407
     44 O6D       -23.0155   -4.3295   -4.6732 O.3         1 ACR      -0.3924
     45 H1        -20.4293   -8.7151   -9.9939 H           1 ACR       0.0950
     46 H2        -18.3490   -7.7239  -10.8236 H           1 ACR       0.0694
     47 H3        -18.8578   -7.4871  -13.2352 H           1 ACR       0.0671
     48 H4        -21.3926   -7.8394  -13.7946 H           1 ACR       0.0769
     49 H5        -24.1215   -7.3835  -11.8358 H           1 ACR       0.0706
     50 H6        -23.5638   -6.8386  -13.4136 H           1 ACR       0.0706
     51 H7        -22.4962   -7.2465   -9.9837 H           1 ACR       0.0299
     52 H8        -18.5272   -5.6415  -11.8501 H           1 ACR       0.2103
     53 H9        -19.8015   -9.5145  -13.3988 H           1 ACR       0.2102
     54 H10       -20.2940   -6.0261  -14.3668 H           1 ACR       0.2130
     55 H11       -23.3596   -5.2247  -11.1290 H           1 ACR       0.2125
     56 H12       -16.2474   -7.0897   -5.2273 H           1 ACR       0.0938
     57 H13       -16.5347   -5.7941   -7.2166 H           1 ACR       0.0672
     58 H14       -19.5329   -5.5591   -6.6085 H           1 ACR       0.0679
     59 H15       -18.1314   -7.1914   -8.7591 H           1 ACR       0.0903
     60 H16       -19.6393   -8.1676   -6.2803 H           1 ACR       0.0652
     61 H17       -18.6732  -10.4292   -6.9064 H           1 ACR       0.0257
     62 H18       -18.2827   -9.7656   -8.5052 H           1 ACR       0.0257
     63 H19       -19.9773   -9.8726   -7.9541 H           1 ACR       0.0257
     64 H20       -20.9598   -7.4740   -8.1360 H           1 ACR       0.2029
     65 H21       -20.5488   -6.0406   -8.8198 H           1 ACR       0.2029
     66 H22       -17.2879   -3.8328   -6.3593 H           1 ACR       0.2101
     67 H23       -17.8931   -4.8074   -8.7984 H           1 ACR       0.2102
     68 H24       -21.0564   -8.9213   -2.0029 H           1 ACR       0.0938
     69 H25       -20.9028   -6.4936   -1.6415 H           1 ACR       0.0671
     70 H26       -18.4481   -6.0367   -2.1018 H           1 ACR       0.0648
     71 H27       -17.0959   -7.9579   -3.0575 H           1 ACR       0.0651
     72 H28       -18.4314   -9.5110   -4.6244 H           1 ACR       0.0647
     73 H29       -19.0395  -10.1012   -1.7022 H           1 ACR       0.0584
     74 H30       -17.4756  -10.3701   -2.4944 H           1 ACR       0.0584
     75 H31       -20.3467   -5.1054   -3.2354 H           1 ACR       0.2101
     76 H32       -17.7330   -7.6293   -0.7658 H           1 ACR       0.2100
     77 H33       -18.7933  -12.1860   -2.4984 H           1 ACR       0.2095
     78 H34       -25.8382   -5.2670   -0.7269 H           1 ACR       0.0935
     79 H35       -25.8715   -7.6502   -1.2096 H           1 ACR       0.0671
     80 H36       -22.8482   -7.6874   -0.7500 H           1 ACR       0.0648
     81 H37       -24.3609   -8.0089   -3.3759 H           1 ACR       0.0651
     82 H38       -22.6721   -5.6122   -2.5570 H           1 ACR       0.0647
     83 H39       -24.5296   -5.6951   -4.9688 H           1 ACR       0.0584
     84 H40       -22.8782   -6.3270   -5.1156 H           1 ACR       0.0584
     85 H41       -23.6524   -4.2753   -0.7743 H           1 ACR       0.2126
     86 H42       -25.9366   -7.1574    0.9258 H           1 ACR       0.2101
     87 H43       -24.6885   -9.6130   -1.7170 H           1 ACR       0.2100
     88 H44       -22.5711   -4.3085   -5.5492 H           1 ACR       0.2095
@<TRIPOS>BOND
     1     1     2   1
     2     1     7   1
     3    18     1   1
     4     2     3   1
     5     2     8   1
     6     3     4   1
     7     3     9   1
     8     5     4   1
     9     4    10   1
    10     5     6   1
    11     7     5   2
    12     6    11   1
    13    12    13   1
    14    12    21   1
    15    30    12   1
    16    13    14   1
    17    13    19   1
    18    14    15   1
    19    14    20   1
    20    16    15   1
    21    15    18   1
    22    16    17   1
    23    21    16   1
    24    22    23   1
    25    22    31   1
    26    42    22   1
    27    23    24   1
    28    23    28   1
    29    24    25   1
    30    24    29   1
    31    26    25   1
    32    25    30   1
    33    26    27   1
    34    31    26   1
    35    27    32   1
    36    34    33   1
    37    33    39   1
    38    33    43   1
    39    35    34   1
    40    34    40   1
    41    36    35   1
    42    35    41   1
    43    36    37   1
    44    36    42   1
    45    37    38   1
    46    37    43   1
    47    38    44   1
    48     1    45   1
    49     2    46   1
    50     3    47   1
    51     4    48   1
    52     6    49   1
    53     6    50   1
    54     7    51   1
    55     8    52   1
    56     9    53   1
    57    10    54   1
    58    11    55   1
    59    12    56   1
    60    13    57   1
    61    14    58   1
    62    15    59   1
    63    16    60   1
    64    17    61   1
    65    17    62   1
    66    17    63   1
    67    18    64   1
    68    18    65   1
    69    19    66   1
    70    20    67   1
    71    22    68   1
    72    23    69   1
    73    24    70   1
    74    25    71   1
    75    26    72   1
    76    27    73   1
    77    27    74   1
    78    28    75   1
    79    29    76   1
    80    32    77   1
    81    33    78   1
    82    34    79   1
    83    35    80   1
    84    36    81   1
    85    37    82   1
    86    38    83   1
    87    38    84   1
    88    39    85   1
    89    40    86   1
    90    41    87   1
    91    44    88   1
@<TRIPOS>SUBSTRUCTURE
     1  ACR      1

