@<TRIPOS>MOLECULE
2qmj_ligand_027
    88    91
SMALL
GAST_HUCK
****
This file was generated by PARSER (from files_GN.cpp)

@<TRIPOS>ATOM
      1 C1A       -19.5425   -6.2429  -10.4634 C.3         1 ACR       0.0141
      2 C2A       -20.6650   -5.8186  -11.4593 C.3         1 ACR       0.1303
      3 C3A       -21.6615   -6.9823  -11.6876 C.3         1 ACR       0.1215
      4 C4A       -20.8984   -8.2394  -12.2070 C.3         1 ACR       0.1112
      5 C5A       -19.5855   -8.4869  -11.5808 C.2         1 ACR      -0.0200
      6 C6A       -18.8555   -9.7209  -11.8784 C.3         1 ACR       0.0719
      7 C7A       -18.9906   -7.5552  -10.8001 C.2         1 ACR      -0.0543
      8 O2A       -21.3143   -4.6182  -11.0445 O.3         1 ACR      -0.3821
      9 O3A       -22.6614   -6.5939  -12.6332 O.3         1 ACR      -0.3843
     10 O4A       -21.7698   -9.3635  -12.0480 O.3         1 ACR      -0.3780
     11 O6A       -17.7211   -9.4588  -12.7029 O.3         1 ACR      -0.3839
     12 C1B       -17.6843   -5.7181   -5.3349 C.3         1 ACR       0.1886
     13 C2B       -16.8760   -5.8068   -6.6662 C.3         1 ACR       0.1370
     14 C3B       -17.7425   -5.6315   -7.9426 C.3         1 ACR       0.1304
     15 C4B       -19.0676   -6.4555   -7.9009 C.3         1 ACR       0.0341
     16 C5B       -19.7822   -6.1607   -6.5406 C.3         1 ACR       0.1038
     17 C6B       -21.0755   -6.9827   -6.3162 C.3         1 ACR      -0.0332
     18 N4B       -20.0077   -6.1941   -9.0424 N.4         1 ACR       0.2433
     19 O2B       -15.7955   -4.8717   -6.7071 O.3         1 ACR      -0.3840
     20 O3B       -16.9334   -6.0503   -9.0362 O.3         1 ACR      -0.3834
     21 O5B       -18.9037   -6.4818   -5.4457 O.3         1 ACR      -0.3401
     22 C1C       -16.3470   -2.4240   -1.4747 C.3         1 ACR       0.1884
     23 C2C       -17.3540   -1.6470   -2.3581 C.3         1 ACR       0.1341
     24 C3C       -18.0981   -2.6243   -3.3101 C.3         1 ACR       0.1144
     25 C4C       -17.1200   -3.4769   -4.1815 C.3         1 ACR       0.1184
     26 C5C       -15.9639   -4.0660   -3.2853 C.3         1 ACR       0.1134
     27 C6C       -14.6934   -4.5458   -4.0533 C.3         1 ACR       0.0730
     28 O2C       -18.2611   -0.9155   -1.5393 O.3         1 ACR      -0.3841
     29 O3C       -18.9873   -1.8623   -4.1300 O.3         1 ACR      -0.3864
     30 O4C       -18.0164   -4.3943   -4.8624 O.3         1 ACR      -0.3401
     31 O5C       -15.4343   -3.0796   -2.3679 O.3         1 ACR      -0.3405
     32 O6C       -13.5272   -4.5882   -3.2180 O.3         1 ACR      -0.3924
     33 C1D       -14.5058   -3.9982    2.8614 C.3         1 ACR       0.1854
     34 C2D       -14.6040   -5.1488    1.8281 C.3         1 ACR       0.1339
     35 C3D       -15.1527   -4.6397    0.4693 C.3         1 ACR       0.1144
     36 C4D       -16.4572   -3.8052    0.6525 C.3         1 ACR       0.1184
     37 C5D       -16.2612   -2.7035    1.7485 C.3         1 ACR       0.1134
     38 C6D       -17.5727   -1.9688    2.1285 C.3         1 ACR       0.0730
     39 O1D       -13.4388   -3.1003    2.5579 O.3         1 ACR      -0.3649
     40 O2D       -13.3323   -5.7752    1.6455 O.3         1 ACR      -0.3841
     41 O3D       -15.4139   -5.7701   -0.3605 O.3         1 ACR      -0.3864
     42 O4D       -17.0453   -3.3307   -0.5838 O.3         1 ACR      -0.3401
     43 O5D       -15.7598   -3.2970    2.9692 O.3         1 ACR      -0.3407
     44 O6D       -17.8731   -0.9251    1.2130 O.3         1 ACR      -0.3924
     45 H1        -18.7643   -5.4902  -10.5980 H           1 ACR       0.0950
     46 H2        -20.2018   -5.5868  -12.4240 H           1 ACR       0.0694
     47 H3        -22.1627   -7.2178  -10.7439 H           1 ACR       0.0671
     48 H4        -20.7210   -8.1123  -13.2816 H           1 ACR       0.0769
     49 H5        -19.4682  -10.4637  -12.3936 H           1 ACR       0.0706
     50 H6        -18.5121  -10.1746  -10.9459 H           1 ACR       0.0706
     51 H7        -18.1032   -7.7693  -10.4056 H           1 ACR       0.0299
     52 H8        -21.7970   -4.8418  -10.2270 H           1 ACR       0.2103
     53 H9        -23.1624   -7.4136  -12.8414 H           1 ACR       0.2102
     54 H10       -21.5972   -9.9342  -12.8285 H           1 ACR       0.2130
     55 H11       -18.0694   -9.4952  -13.6189 H           1 ACR       0.2125
     56 H12       -17.1097   -6.2243   -4.5422 H           1 ACR       0.0938
     57 H13       -16.4296   -6.8055   -6.6920 H           1 ACR       0.0672
     58 H14       -17.9844   -4.5707   -8.0735 H           1 ACR       0.0679
     59 H15       -18.8098   -7.5178   -7.9141 H           1 ACR       0.0903
     60 H16       -20.0538   -5.0979   -6.4915 H           1 ACR       0.0652
     61 H17       -21.4769   -6.7700   -5.3253 H           1 ACR       0.0257
     62 H18       -20.8585   -8.0487   -6.3876 H           1 ACR       0.0257
     63 H19       -21.8369   -6.7181   -7.0532 H           1 ACR       0.0257
     64 H20       -20.7536   -6.8905   -8.9700 H           1 ACR       0.2029
     65 H21       -20.4405   -5.2829   -8.8732 H           1 ACR       0.2029
     66 H22       -16.2157   -3.9861   -6.6919 H           1 ACR       0.2101
     67 H23       -16.0072   -5.8687   -8.7674 H           1 ACR       0.2102
     68 H24       -15.7812   -1.6889   -0.8974 H           1 ACR       0.0938
     69 H25       -16.7999   -0.9124   -2.9543 H           1 ACR       0.0671
     70 H26       -18.7113   -3.2958   -2.6960 H           1 ACR       0.0648
     71 H27       -16.6768   -2.8137   -4.9266 H           1 ACR       0.0651
     72 H28       -16.3700   -4.9016   -2.7230 H           1 ACR       0.0647
     73 H29       -14.4802   -3.8540   -4.8810 H           1 ACR       0.0584
     74 H30       -14.8404   -5.5481   -4.4669 H           1 ACR       0.0584
     75 H31       -19.0281   -1.5123   -1.3899 H           1 ACR       0.2101
     76 H32       -19.5252   -2.5190   -4.6217 H           1 ACR       0.2100
     77 H33       -13.7277   -5.2813   -2.5553 H           1 ACR       0.2095
     78 H34       -14.2904   -4.4295    3.8409 H           1 ACR       0.0935
     79 H35       -15.2911   -5.9051    2.2202 H           1 ACR       0.0671
     80 H36       -14.3912   -4.0202   -0.0097 H           1 ACR       0.0648
     81 H37       -17.2037   -4.4991    1.0477 H           1 ACR       0.0651
     82 H38       -15.5427   -1.9554    1.4004 H           1 ACR       0.0647
     83 H39       -17.4670   -1.5221    3.1181 H           1 ACR       0.0584
     84 H40       -18.4068   -2.6722    2.1561 H           1 ACR       0.0584
     85 H41       -13.4977   -2.3976    3.2390 H           1 ACR       0.2126
     86 H42       -13.1382   -6.2190    2.4983 H           1 ACR       0.2101
     87 H43       -14.5356   -6.1127   -0.6322 H           1 ACR       0.2100
     88 H44       -18.7199   -0.5453    1.5280 H           1 ACR       0.2095
@<TRIPOS>BOND
     1     1     2   1
     2     1     7   1
     3    18     1   1
     4     2     3   1
     5     2     8   1
     6     3     4   1
     7     3     9   1
     8     5     4   1
     9     4    10   1
    10     5     6   1
    11     7     5   2
    12     6    11   1
    13    12    13   1
    14    12    21   1
    15    30    12   1
    16    13    14   1
    17    13    19   1
    18    14    15   1
    19    14    20   1
    20    16    15   1
    21    15    18   1
    22    16    17   1
    23    21    16   1
    24    22    23   1
    25    22    31   1
    26    42    22   1
    27    23    24   1
    28    23    28   1
    29    24    25   1
    30    24    29   1
    31    26    25   1
    32    25    30   1
    33    26    27   1
    34    31    26   1
    35    27    32   1
    36    34    33   1
    37    33    39   1
    38    33    43   1
    39    35    34   1
    40    34    40   1
    41    36    35   1
    42    35    41   1
    43    36    37   1
    44    36    42   1
    45    37    38   1
    46    37    43   1
    47    38    44   1
    48     1    45   1
    49     2    46   1
    50     3    47   1
    51     4    48   1
    52     6    49   1
    53     6    50   1
    54     7    51   1
    55     8    52   1
    56     9    53   1
    57    10    54   1
    58    11    55   1
    59    12    56   1
    60    13    57   1
    61    14    58   1
    62    15    59   1
    63    16    60   1
    64    17    61   1
    65    17    62   1
    66    17    63   1
    67    18    64   1
    68    18    65   1
    69    19    66   1
    70    20    67   1
    71    22    68   1
    72    23    69   1
    73    24    70   1
    74    25    71   1
    75    26    72   1
    76    27    73   1
    77    27    74   1
    78    28    75   1
    79    29    76   1
    80    32    77   1
    81    33    78   1
    82    34    79   1
    83    35    80   1
    84    36    81   1
    85    37    82   1
    86    38    83   1
    87    38    84   1
    88    39    85   1
    89    40    86   1
    90    41    87   1
    91    44    88   1
@<TRIPOS>SUBSTRUCTURE
     1  ACR      1

