@<TRIPOS>MOLECULE
2qmj_ligand_043
    88    91
SMALL
GAST_HUCK
****
This file was generated by PARSER (from files_GN.cpp)

@<TRIPOS>ATOM
      1 C1A       -19.5261   -6.1495  -10.8666 C.3         1 ACR       0.0141
      2 C2A       -20.6920   -5.8119  -11.8418 C.3         1 ACR       0.1303
      3 C3A       -21.6165   -7.0510  -12.0168 C.3         1 ACR       0.1215
      4 C4A       -20.8101   -8.3382  -12.3914 C.3         1 ACR       0.1112
      5 C5A       -19.4073   -8.3892  -11.9400 C.2         1 ACR      -0.0200
      6 C6A       -18.6089   -9.5911  -12.2050 C.3         1 ACR       0.0719
      7 C7A       -18.8178   -7.3413  -11.3273 C.2         1 ACR      -0.0543
      8 O2A       -21.4198   -4.6691  -11.3953 O.3         1 ACR      -0.3821
      9 O3A       -22.6046   -6.7636  -13.0049 O.3         1 ACR      -0.3843
     10 O4A       -21.5334   -9.4715  -11.8922 O.3         1 ACR      -0.3780
     11 O6A       -17.5426   -9.3116  -13.1082 O.3         1 ACR      -0.3839
     12 C1B       -18.6028   -6.9458   -5.4366 C.3         1 ACR       0.1886
     13 C2B       -18.1338   -5.6431   -6.1474 C.3         1 ACR       0.1370
     14 C3B       -19.0238   -5.3554   -7.3892 C.3         1 ACR       0.1304
     15 C4B       -19.0446   -6.5659   -8.3676 C.3         1 ACR       0.0341
     16 C5B       -19.4410   -7.8538   -7.5831 C.3         1 ACR       0.1038
     17 C6B       -19.2805   -9.1655   -8.3911 C.3         1 ACR      -0.0332
     18 N4B       -20.0264   -6.3289   -9.4717 N.4         1 ACR       0.2433
     19 O2B       -18.1463   -4.5331   -5.2464 O.3         1 ACR      -0.3840
     20 O3B       -18.5659   -4.2070   -8.0980 O.3         1 ACR      -0.3834
     21 O5B       -18.6397   -8.0290   -6.3909 O.3         1 ACR      -0.3401
     22 C1C       -22.7921   -9.2457   -2.8102 C.3         1 ACR       0.1884
     23 C2C       -21.4290   -9.9050   -3.1686 C.3         1 ACR       0.1341
     24 C3C       -20.3048   -8.8413   -3.3507 C.3         1 ACR       0.1144
     25 C4C       -20.7634   -7.7831   -4.3979 C.3         1 ACR       0.1184
     26 C5C       -22.1052   -7.1455   -3.9131 C.3         1 ACR       0.1134
     27 C6C       -22.6850   -6.1205   -4.9266 C.3         1 ACR       0.0730
     28 O2C       -21.0454  -10.8999   -2.2245 O.3         1 ACR      -0.3841
     29 O3C       -19.1202   -9.5204   -3.7668 O.3         1 ACR      -0.3864
     30 O4C       -19.8264   -6.7176   -4.6966 O.3         1 ACR      -0.3401
     31 O5C       -23.0996   -8.1820   -3.7367 O.3         1 ACR      -0.3405
     32 O6C       -21.8911   -4.9387   -5.0105 O.3         1 ACR      -0.3924
     33 C1D       -22.7212  -11.7690    1.5670 C.3         1 ACR       0.1854
     34 C2D       -24.0656  -11.7057    0.7993 C.3         1 ACR       0.1339
     35 C3D       -23.8958  -10.9033   -0.5125 C.3         1 ACR       0.1144
     36 C4D       -23.2208   -9.5096   -0.2864 C.3         1 ACR       0.1184
     37 C5D       -21.9673   -9.6226    0.6487 C.3         1 ACR       0.1134
     38 C6D       -21.4770   -8.2485    1.1776 C.3         1 ACR       0.0730
     39 O1D       -21.7502  -12.5500    0.8667 O.3         1 ACR      -0.3649
     40 O2D       -24.5583  -13.0223    0.5317 O.3         1 ACR      -0.3841
     41 O3D       -25.1770  -10.7217   -1.1245 O.3         1 ACR      -0.3864
     42 O4D       -22.9179   -8.7179   -1.4692 O.3         1 ACR      -0.3401
     43 O5D       -22.2385  -10.4337    1.8183 O.3         1 ACR      -0.3407
     44 O6D       -20.9743   -7.4077    0.1396 O.3         1 ACR      -0.3924
     45 H1        -18.8381   -5.2976  -10.8729 H           1 ACR       0.0950
     46 H2        -20.2786   -5.5530  -12.8200 H           1 ACR       0.0694
     47 H3        -22.1442   -7.2156  -11.0718 H           1 ACR       0.0671
     48 H4        -20.7955   -8.4261  -13.4830 H           1 ACR       0.0769
     49 H5        -19.2071  -10.4003  -12.6310 H           1 ACR       0.0706
     50 H6        -18.1830   -9.9651  -11.2713 H           1 ACR       0.0706
     51 H7        -17.8493   -7.3991  -11.0980 H           1 ACR       0.0299
     52 H8        -21.8948   -4.9557  -10.5897 H           1 ACR       0.2103
     53 H9        -23.1536   -7.5736  -13.0616 H           1 ACR       0.2102
     54 H10       -21.4108   -9.4508  -10.9225 H           1 ACR       0.2130
     55 H11       -17.9703   -9.2951  -13.9890 H           1 ACR       0.2125
     56 H12       -17.8372   -7.2014   -4.7030 H           1 ACR       0.0938
     57 H13       -17.0996   -5.7831   -6.4810 H           1 ACR       0.0672
     58 H14       -20.0432   -5.1472   -7.0542 H           1 ACR       0.0679
     59 H15       -18.0296   -6.7042   -8.7496 H           1 ACR       0.0903
     60 H16       -20.4962   -7.7643   -7.3256 H           1 ACR       0.0652
     61 H17       -19.5035  -10.0260   -7.7536 H           1 ACR       0.0257
     62 H18       -18.2566   -9.2598   -8.7613 H           1 ACR       0.0257
     63 H19       -19.9722   -9.1855   -9.2319 H           1 ACR       0.0257
     64 H20       -20.6748   -7.1200   -9.4889 H           1 ACR       0.2029
     65 H21       -20.5772   -5.5038   -9.2148 H           1 ACR       0.2029
     66 H22       -17.7474   -3.7817   -5.7429 H           1 ACR       0.2101
     67 H23       -18.4895   -3.4795   -7.4478 H           1 ACR       0.2102
     68 H24       -23.5800   -9.9772   -2.9881 H           1 ACR       0.0938
     69 H25       -21.5570  -10.4321   -4.1227 H           1 ACR       0.0671
     70 H26       -20.0984   -8.3549   -2.3915 H           1 ACR       0.0648
     71 H27       -20.9999   -8.3299   -5.3072 H           1 ACR       0.0651
     72 H28       -21.9494   -6.6279   -2.9599 H           1 ACR       0.0647
     73 H29       -23.6906   -5.8243   -4.6194 H           1 ACR       0.0584
     74 H30       -22.7466   -6.5795   -5.9167 H           1 ACR       0.0584
     75 H31       -20.2439  -11.3194   -2.6018 H           1 ACR       0.2101
     76 H32       -18.4006   -8.8605   -3.6825 H           1 ACR       0.2100
     77 H33       -22.1529   -4.5111   -5.8540 H           1 ACR       0.2095
     78 H34       -22.8855  -12.2472    2.5334 H           1 ACR       0.0935
     79 H35       -24.8011  -11.2035    1.4392 H           1 ACR       0.0671
     80 H36       -23.2829  -11.5022   -1.1934 H           1 ACR       0.0648
     81 H37       -23.9583   -8.9139    0.2622 H           1 ACR       0.0651
     82 H38       -21.1353  -10.0699    0.1032 H           1 ACR       0.0647
     83 H39       -20.6706   -8.4016    1.9001 H           1 ACR       0.0584
     84 H40       -22.2926   -7.7257    1.6864 H           1 ACR       0.0584
     85 H41       -20.9602  -12.5436    1.4454 H           1 ACR       0.2126
     86 H42       -23.8805  -13.4407   -0.0421 H           1 ACR       0.2101
     87 H43       -25.3936  -11.5861   -1.5308 H           1 ACR       0.2100
     88 H44       -20.1979   -7.8886   -0.2182 H           1 ACR       0.2095
@<TRIPOS>BOND
     1     1     2   1
     2     1     7   1
     3    18     1   1
     4     2     3   1
     5     2     8   1
     6     3     4   1
     7     3     9   1
     8     5     4   1
     9     4    10   1
    10     5     6   1
    11     7     5   2
    12     6    11   1
    13    12    13   1
    14    12    21   1
    15    30    12   1
    16    13    14   1
    17    13    19   1
    18    14    15   1
    19    14    20   1
    20    16    15   1
    21    15    18   1
    22    16    17   1
    23    21    16   1
    24    22    23   1
    25    22    31   1
    26    42    22   1
    27    23    24   1
    28    23    28   1
    29    24    25   1
    30    24    29   1
    31    26    25   1
    32    25    30   1
    33    26    27   1
    34    31    26   1
    35    27    32   1
    36    34    33   1
    37    33    39   1
    38    33    43   1
    39    35    34   1
    40    34    40   1
    41    36    35   1
    42    35    41   1
    43    36    37   1
    44    36    42   1
    45    37    38   1
    46    37    43   1
    47    38    44   1
    48     1    45   1
    49     2    46   1
    50     3    47   1
    51     4    48   1
    52     6    49   1
    53     6    50   1
    54     7    51   1
    55     8    52   1
    56     9    53   1
    57    10    54   1
    58    11    55   1
    59    12    56   1
    60    13    57   1
    61    14    58   1
    62    15    59   1
    63    16    60   1
    64    17    61   1
    65    17    62   1
    66    17    63   1
    67    18    64   1
    68    18    65   1
    69    19    66   1
    70    20    67   1
    71    22    68   1
    72    23    69   1
    73    24    70   1
    74    25    71   1
    75    26    72   1
    76    27    73   1
    77    27    74   1
    78    28    75   1
    79    29    76   1
    80    32    77   1
    81    33    78   1
    82    34    79   1
    83    35    80   1
    84    36    81   1
    85    37    82   1
    86    38    83   1
    87    38    84   1
    88    39    85   1
    89    40    86   1
    90    41    87   1
    91    44    88   1
@<TRIPOS>SUBSTRUCTURE
     1  ACR      1

