@<TRIPOS>MOLECULE
2qmj_ligand_037
    88    91
SMALL
GAST_HUCK
****
This file was generated by PARSER (from files_GN.cpp)

@<TRIPOS>ATOM
      1 C1A       -19.6727   -6.1134  -10.8037 C.3         1 ACR       0.0141
      2 C2A       -20.8091   -5.7123  -11.7895 C.3         1 ACR       0.1303
      3 C3A       -21.7881   -6.9027  -11.9829 C.3         1 ACR       0.1215
      4 C4A       -21.0286   -8.2063  -12.4015 C.3         1 ACR       0.1112
      5 C5A       -19.6292   -8.3277  -11.9488 C.2         1 ACR      -0.0200
      6 C6A       -18.8403   -9.4919  -12.3675 C.3         1 ACR       0.0719
      7 C7A       -19.0138   -7.3275  -11.2780 C.2         1 ACR      -0.0543
      8 O2A       -21.4821   -4.5356  -11.3374 O.3         1 ACR      -0.3821
      9 O3A       -22.7805   -6.5548  -12.9478 O.3         1 ACR      -0.3843
     10 O4A       -21.7772   -9.3372  -11.9401 O.3         1 ACR      -0.3780
     11 O6A       -18.0071  -10.0038  -11.3310 O.3         1 ACR      -0.3839
     12 C1B       -18.8964   -7.0753   -5.3799 C.3         1 ACR       0.1886
     13 C2B       -18.4433   -5.7171   -5.9920 C.3         1 ACR       0.1370
     14 C3B       -19.2749   -5.3841   -7.2624 C.3         1 ACR       0.1304
     15 C4B       -19.2502   -6.5517   -8.2960 C.3         1 ACR       0.0341
     16 C5B       -19.6573   -7.8741   -7.5737 C.3         1 ACR       0.1038
     17 C6B       -19.5234   -9.1465   -8.4363 C.3         1 ACR      -0.0332
     18 N4B       -20.1975   -6.2648   -9.4159 N.4         1 ACR       0.2433
     19 O2B       -18.5394   -4.6673   -5.0273 O.3         1 ACR      -0.3840
     20 O3B       -18.7865   -4.1940   -7.8875 O.3         1 ACR      -0.3834
     21 O5B       -18.8408   -8.0950   -6.4015 O.3         1 ACR      -0.3401
     22 C1C       -22.9217   -9.7263   -2.9036 C.3         1 ACR       0.1884
     23 C2C       -21.4762  -10.2548   -3.1388 C.3         1 ACR       0.1341
     24 C3C       -20.4857   -9.0679   -3.3302 C.3         1 ACR       0.1144
     25 C4C       -20.9885   -8.1458   -4.4833 C.3         1 ACR       0.1184
     26 C5C       -22.4608   -7.6975   -4.2044 C.3         1 ACR       0.1134
     27 C6C       -23.0526   -6.8464   -5.3619 C.3         1 ACR       0.0730
     28 O2C       -21.0426  -11.1393   -2.1099 O.3         1 ACR      -0.3841
     29 O3C       -19.1887   -9.5908   -3.6250 O.3         1 ACR      -0.3864
     30 O4C       -20.1884   -6.9595   -4.7346 O.3         1 ACR      -0.3401
     31 O5C       -23.3002   -8.8652   -3.9997 O.3         1 ACR      -0.3405
     32 O6C       -24.4732   -6.9799   -5.4476 O.3         1 ACR      -0.3924
     33 C1D       -24.1532   -9.3716    2.4027 C.3         1 ACR       0.1854
     34 C2D       -22.6458   -9.5207    2.0629 C.3         1 ACR       0.1339
     35 C3D       -22.3548   -8.9876    0.6362 C.3         1 ACR       0.1144
     36 C4D       -23.2851   -9.6642   -0.4145 C.3         1 ACR       0.1184
     37 C5D       -24.7732   -9.5091    0.0404 C.3         1 ACR       0.1134
     38 C6D       -25.7938  -10.2520   -0.8510 C.3         1 ACR       0.0730
     39 O1D       -24.5229   -8.0023    2.5716 O.3         1 ACR      -0.3649
     40 O2D       -21.8482   -8.8480    3.0384 O.3         1 ACR      -0.3841
     41 O3D       -20.9842   -9.1991    0.3128 O.3         1 ACR      -0.3864
     42 O4D       -23.0656   -8.9867   -1.6679 O.3         1 ACR      -0.3401
     43 O5D       -24.9635   -9.9976    1.3894 O.3         1 ACR      -0.3407
     44 O6D       -25.8317  -11.6470   -0.5855 O.3         1 ACR      -0.3924
     45 H1        -18.9450   -5.2938  -10.7975 H           1 ACR       0.0950
     46 H2        -20.3684   -5.4683  -12.7603 H           1 ACR       0.0694
     47 H3        -22.3115   -7.0781  -11.0369 H           1 ACR       0.0671
     48 H4        -21.0172   -8.2506  -13.4976 H           1 ACR       0.0769
     49 H5        -18.2105   -9.2135  -13.2190 H           1 ACR       0.0706
     50 H6        -19.4851  -10.3147  -12.6853 H           1 ACR       0.0706
     51 H7        -18.0463   -7.4145  -11.0606 H           1 ACR       0.0299
     52 H8        -22.2916   -4.8609  -10.8963 H           1 ACR       0.2103
     53 H9        -23.2920   -7.3756  -13.1093 H           1 ACR       0.2102
     54 H10       -22.5999   -9.3471  -12.4757 H           1 ACR       0.2130
     55 H11       -17.1665   -9.4971  -11.4019 H           1 ACR       0.2125
     56 H12       -18.1643   -7.3437   -4.6107 H           1 ACR       0.0938
     57 H13       -17.3890   -5.7986   -6.2767 H           1 ACR       0.0672
     58 H14       -20.3077   -5.1964   -6.9511 H           1 ACR       0.0679
     59 H15       -18.2200   -6.6562   -8.6597 H           1 ACR       0.0903
     60 H16       -20.7061   -7.7918   -7.2851 H           1 ACR       0.0652
     61 H17       -19.7721  -10.0256   -7.8396 H           1 ACR       0.0257
     62 H18       -18.4995   -9.2495   -8.8024 H           1 ACR       0.0257
     63 H19       -20.2115   -9.1111   -9.2812 H           1 ACR       0.0257
     64 H20       -20.8970   -7.0105   -9.4360 H           1 ACR       0.2029
     65 H21       -20.6954   -5.4035   -9.1743 H           1 ACR       0.2029
     66 H22       -19.4948   -4.5872   -4.8215 H           1 ACR       0.2101
     67 H23       -18.8038   -3.4985   -7.1968 H           1 ACR       0.2102
     68 H24       -23.6038  -10.5781   -2.9236 H           1 ACR       0.0938
     69 H25       -21.4871  -10.8399   -4.0661 H           1 ACR       0.0671
     70 H26       -20.4109   -8.4891   -2.4029 H           1 ACR       0.0648
     71 H27       -21.0225   -8.7605   -5.3864 H           1 ACR       0.0651
     72 H28       -22.4808   -7.0741   -3.3018 H           1 ACR       0.0647
     73 H29       -22.6297   -7.1472   -6.3204 H           1 ACR       0.0584
     74 H30       -22.8272   -5.7884   -5.1982 H           1 ACR       0.0584
     75 H31       -20.8894  -10.5738   -1.3309 H           1 ACR       0.2101
     76 H32       -18.8753   -9.9946   -2.7915 H           1 ACR       0.2100
     77 H33       -24.6363   -7.9472   -5.4247 H           1 ACR       0.2095
     78 H34       -24.3604   -9.8820    3.3459 H           1 ACR       0.0935
     79 H35       -22.3903  -10.5846    2.1078 H           1 ACR       0.0671
     80 H36       -22.5316   -7.9093    0.6205 H           1 ACR       0.0648
     81 H37       -23.0224  -10.7263   -0.4781 H           1 ACR       0.0651
     82 H38       -25.0314   -8.4454    0.0019 H           1 ACR       0.0647
     83 H39       -25.5874  -10.0840   -1.9063 H           1 ACR       0.0584
     84 H40       -26.7941   -9.8490   -0.6420 H           1 ACR       0.0584
     85 H41       -25.4981   -7.9883    2.4848 H           1 ACR       0.2126
     86 H42       -22.0950   -7.9014    2.9706 H           1 ACR       0.2101
     87 H43       -20.4840   -8.5939    0.8935 H           1 ACR       0.2100
     88 H44       -25.4342  -12.0891   -1.3708 H           1 ACR       0.2095
@<TRIPOS>BOND
     1     1     2   1
     2     1     7   1
     3    18     1   1
     4     2     3   1
     5     2     8   1
     6     3     4   1
     7     3     9   1
     8     5     4   1
     9     4    10   1
    10     5     6   1
    11     7     5   2
    12     6    11   1
    13    12    13   1
    14    12    21   1
    15    30    12   1
    16    13    14   1
    17    13    19   1
    18    14    15   1
    19    14    20   1
    20    16    15   1
    21    15    18   1
    22    16    17   1
    23    21    16   1
    24    22    23   1
    25    22    31   1
    26    42    22   1
    27    23    24   1
    28    23    28   1
    29    24    25   1
    30    24    29   1
    31    26    25   1
    32    25    30   1
    33    26    27   1
    34    31    26   1
    35    27    32   1
    36    34    33   1
    37    33    39   1
    38    33    43   1
    39    35    34   1
    40    34    40   1
    41    36    35   1
    42    35    41   1
    43    36    37   1
    44    36    42   1
    45    37    38   1
    46    37    43   1
    47    38    44   1
    48     1    45   1
    49     2    46   1
    50     3    47   1
    51     4    48   1
    52     6    49   1
    53     6    50   1
    54     7    51   1
    55     8    52   1
    56     9    53   1
    57    10    54   1
    58    11    55   1
    59    12    56   1
    60    13    57   1
    61    14    58   1
    62    15    59   1
    63    16    60   1
    64    17    61   1
    65    17    62   1
    66    17    63   1
    67    18    64   1
    68    18    65   1
    69    19    66   1
    70    20    67   1
    71    22    68   1
    72    23    69   1
    73    24    70   1
    74    25    71   1
    75    26    72   1
    76    27    73   1
    77    27    74   1
    78    28    75   1
    79    29    76   1
    80    32    77   1
    81    33    78   1
    82    34    79   1
    83    35    80   1
    84    36    81   1
    85    37    82   1
    86    38    83   1
    87    38    84   1
    88    39    85   1
    89    40    86   1
    90    41    87   1
    91    44    88   1
@<TRIPOS>SUBSTRUCTURE
     1  ACR      1

