@<TRIPOS>MOLECULE
2qmj_ligand_073
    88    91
SMALL
GAST_HUCK
****
This file was generated by PARSER (from files_GN.cpp)

@<TRIPOS>ATOM
      1 C1A       -19.7472   -5.7592  -11.0844 C.3         1 ACR       0.0141
      2 C2A       -21.0016   -5.4148  -11.9418 C.3         1 ACR       0.1303
      3 C3A       -21.8947   -6.6774  -12.0870 C.3         1 ACR       0.1215
      4 C4A       -21.0764   -7.8862  -12.6518 C.3         1 ACR       0.1112
      5 C5A       -19.6299   -7.9059  -12.3541 C.2         1 ACR      -0.0200
      6 C6A       -18.8158   -8.9969  -12.9041 C.3         1 ACR       0.0719
      7 C7A       -19.0412   -6.8952  -11.6722 C.2         1 ACR      -0.0543
      8 O2A       -21.7109   -4.3095  -11.3909 O.3         1 ACR      -0.3821
      9 O3A       -23.0117   -6.3847  -12.9265 O.3         1 ACR      -0.3843
     10 O4A       -21.6733   -9.0934  -12.1649 O.3         1 ACR      -0.3780
     11 O6A       -19.0405  -10.2439  -12.2465 O.3         1 ACR      -0.3839
     12 C1B       -18.1860   -7.4401   -6.0196 C.3         1 ACR       0.1886
     13 C2B       -18.1781   -5.8976   -6.2696 C.3         1 ACR       0.1370
     14 C3B       -19.1652   -5.4537   -7.3940 C.3         1 ACR       0.1304
     15 C4B       -19.0557   -6.3482   -8.6668 C.3         1 ACR       0.0341
     16 C5B       -19.1873   -7.8298   -8.2104 C.3         1 ACR       0.1038
     17 C6B       -19.0761   -8.9030   -9.3152 C.3         1 ACR      -0.0332
     18 N4B       -20.1213   -6.0020   -9.6584 N.4         1 ACR       0.2433
     19 O2B       -18.4377   -5.1811   -5.0612 O.3         1 ACR      -0.3840
     20 O3B       -18.9191   -4.1004   -7.7805 O.3         1 ACR      -0.3834
     21 O5B       -18.1322   -8.1332   -7.2791 O.3         1 ACR      -0.3401
     22 C1C       -20.9109  -11.7812   -4.2582 C.3         1 ACR       0.1884
     23 C2C       -19.6871  -11.7669   -5.2057 C.3         1 ACR       0.1341
     24 C3C       -18.8857  -10.4428   -5.0392 C.3         1 ACR       0.1144
     25 C4C       -19.8343   -9.2186   -5.2759 C.3         1 ACR       0.1184
     26 C5C       -21.0449   -9.3182   -4.2929 C.3         1 ACR       0.1134
     27 C6C       -22.1434   -8.2474   -4.5378 C.3         1 ACR       0.0730
     28 O2C       -18.8720  -12.9123   -4.9441 O.3         1 ACR      -0.3841
     29 O3C       -17.7959  -10.5024   -5.9587 O.3         1 ACR      -0.3864
     30 O4C       -19.2538   -7.8870   -5.1521 O.3         1 ACR      -0.3401
     31 O5C       -21.7130  -10.5932   -4.4381 O.3         1 ACR      -0.3405
     32 O6C       -21.6532   -6.9108   -4.5070 O.3         1 ACR      -0.3924
     33 C1D       -19.9414  -14.0473   -0.0517 C.3         1 ACR       0.1854
     34 C2D       -20.4728  -14.6216   -1.3899 C.3         1 ACR       0.1339
     35 C3D       -21.7077  -13.8107   -1.8683 C.3         1 ACR       0.1144
     36 C4D       -21.4227  -12.2739   -1.8838 C.3         1 ACR       0.1184
     37 C5D       -20.7963  -11.7874   -0.5360 C.3         1 ACR       0.1134
     38 C6D       -21.7936  -11.5571    0.6318 C.3         1 ACR       0.0730
     39 O1D       -18.7148  -14.6790    0.3101 O.3         1 ACR      -0.3649
     40 O2D       -19.4400  -14.5882   -2.3746 O.3         1 ACR      -0.3841
     41 O3D       -22.8402  -14.0913   -1.0437 O.3         1 ACR      -0.3864
     42 O4D       -20.4541  -11.9347   -2.9015 O.3         1 ACR      -0.3401
     43 O5D       -19.6829  -12.6297   -0.1469 O.3         1 ACR      -0.3407
     44 O6D       -22.5265  -10.3454    0.4716 O.3         1 ACR      -0.3924
     45 H1        -19.0858   -4.8862  -11.1140 H           1 ACR       0.0950
     46 H2        -20.6815   -5.1081  -12.9404 H           1 ACR       0.0694
     47 H3        -22.2966   -6.9328  -11.1027 H           1 ACR       0.0671
     48 H4        -21.1794   -7.8843  -13.7428 H           1 ACR       0.0769
     49 H5        -17.7427   -8.7980  -12.8420 H           1 ACR       0.0706
     50 H6        -19.0515   -9.1144  -13.9639 H           1 ACR       0.0706
     51 H7        -18.0555   -6.9224  -11.5302 H           1 ACR       0.0299
     52 H8        -22.4648   -4.6935  -10.9109 H           1 ACR       0.2103
     53 H9        -23.4109   -7.2591  -13.1328 H           1 ACR       0.2102
     54 H10       -22.5362   -9.1716  -12.6301 H           1 ACR       0.2130
     55 H11       -18.3287  -10.3332  -11.5882 H           1 ACR       0.2125
     56 H12       -17.2602   -7.6758   -5.4920 H           1 ACR       0.0938
     57 H13       -17.1678   -5.6209   -6.5876 H           1 ACR       0.0672
     58 H14       -20.1839   -5.5113   -7.0031 H           1 ACR       0.0679
     59 H15       -18.0594   -6.2057   -9.0942 H           1 ACR       0.0903
     60 H16       -20.1754   -7.9579   -7.7510 H           1 ACR       0.0652
     61 H17       -19.0909   -9.8938   -8.8549 H           1 ACR       0.0257
     62 H18       -18.1421   -8.7894   -9.8673 H           1 ACR       0.0257
     63 H19       -19.9214   -8.8387  -10.0013 H           1 ACR       0.0257
     64 H20       -20.8095   -6.7560   -9.6441 H           1 ACR       0.2029
     65 H21       -20.5993   -5.1637   -9.3094 H           1 ACR       0.2029
     66 H22       -19.3398   -5.4441   -4.7866 H           1 ACR       0.2101
     67 H23       -19.0690   -3.5371   -6.9875 H           1 ACR       0.2102
     68 H24       -21.5320  -12.6324   -4.5409 H           1 ACR       0.0938
     69 H25       -20.0554  -11.8425   -6.2368 H           1 ACR       0.0671
     70 H26       -18.4700  -10.3936   -4.0295 H           1 ACR       0.0648
     71 H27       -20.2424   -9.3220   -6.2813 H           1 ACR       0.0651
     72 H28       -20.6911   -9.2079   -3.2643 H           1 ACR       0.0647
     73 H29       -22.9010   -8.3264   -3.7495 H           1 ACR       0.0584
     74 H30       -22.6425   -8.4234   -5.4975 H           1 ACR       0.0584
     75 H31       -18.9228  -13.4778   -5.7568 H           1 ACR       0.2101
     76 H32       -17.0967   -9.9337   -5.5771 H           1 ACR       0.2100
     77 H33       -21.1342   -6.8054   -5.3297 H           1 ACR       0.2095
     78 H34       -20.6582  -14.2417    0.7505 H           1 ACR       0.0935
     79 H35       -20.7550  -15.6668   -1.2452 H           1 ACR       0.0671
     80 H36       -21.9794  -14.1470   -2.8709 H           1 ACR       0.0648
     81 H37       -22.3530  -11.7319   -2.0651 H           1 ACR       0.0651
     82 H38       -20.3495  -10.8039   -0.7225 H           1 ACR       0.0647
     83 H39       -21.2307  -11.4764    1.5633 H           1 ACR       0.0584
     84 H40       -22.4939  -12.3834    0.7339 H           1 ACR       0.0584
     85 H41       -18.9549  -15.6067    0.5255 H           1 ACR       0.2126
     86 H42       -19.7881  -15.1017   -3.1366 H           1 ACR       0.2101
     87 H43       -23.1537  -14.9761   -1.3187 H           1 ACR       0.2100
     88 H44       -23.1400  -10.5002   -0.2768 H           1 ACR       0.2095
@<TRIPOS>BOND
     1     1     2   1
     2     1     7   1
     3    18     1   1
     4     2     3   1
     5     2     8   1
     6     3     4   1
     7     3     9   1
     8     5     4   1
     9     4    10   1
    10     5     6   1
    11     7     5   2
    12     6    11   1
    13    12    13   1
    14    12    21   1
    15    30    12   1
    16    13    14   1
    17    13    19   1
    18    14    15   1
    19    14    20   1
    20    16    15   1
    21    15    18   1
    22    16    17   1
    23    21    16   1
    24    22    23   1
    25    22    31   1
    26    42    22   1
    27    23    24   1
    28    23    28   1
    29    24    25   1
    30    24    29   1
    31    26    25   1
    32    25    30   1
    33    26    27   1
    34    31    26   1
    35    27    32   1
    36    34    33   1
    37    33    39   1
    38    33    43   1
    39    35    34   1
    40    34    40   1
    41    36    35   1
    42    35    41   1
    43    36    37   1
    44    36    42   1
    45    37    38   1
    46    37    43   1
    47    38    44   1
    48     1    45   1
    49     2    46   1
    50     3    47   1
    51     4    48   1
    52     6    49   1
    53     6    50   1
    54     7    51   1
    55     8    52   1
    56     9    53   1
    57    10    54   1
    58    11    55   1
    59    12    56   1
    60    13    57   1
    61    14    58   1
    62    15    59   1
    63    16    60   1
    64    17    61   1
    65    17    62   1
    66    17    63   1
    67    18    64   1
    68    18    65   1
    69    19    66   1
    70    20    67   1
    71    22    68   1
    72    23    69   1
    73    24    70   1
    74    25    71   1
    75    26    72   1
    76    27    73   1
    77    27    74   1
    78    28    75   1
    79    29    76   1
    80    32    77   1
    81    33    78   1
    82    34    79   1
    83    35    80   1
    84    36    81   1
    85    37    82   1
    86    38    83   1
    87    38    84   1
    88    39    85   1
    89    40    86   1
    90    41    87   1
    91    44    88   1
@<TRIPOS>SUBSTRUCTURE
     1  ACR      1

