@<TRIPOS>MOLECULE
2qmj_ligand_017
    88    91
SMALL
GAST_HUCK
****
This file was generated by PARSER (from files_GN.cpp)

@<TRIPOS>ATOM
      1 C1A       -19.6169   -6.0351  -10.9348 C.3         1 ACR       0.0141
      2 C2A       -20.8721   -5.6697  -11.7747 C.3         1 ACR       0.1303
      3 C3A       -21.8317   -6.8848  -11.8460 C.3         1 ACR       0.1215
      4 C4A       -21.0965   -8.1868  -12.3122 C.3         1 ACR       0.1112
      5 C5A       -19.6720   -8.2960  -11.9534 C.2         1 ACR      -0.0200
      6 C6A       -18.9467   -9.5499  -12.1770 C.3         1 ACR       0.0719
      7 C7A       -18.9876   -7.2425  -11.4628 C.2         1 ACR      -0.0543
      8 O2A       -21.5072   -4.5055  -11.2409 O.3         1 ACR      -0.3821
      9 O3A       -22.9156   -6.5690  -12.7170 O.3         1 ACR      -0.3843
     10 O4A       -21.8079   -9.3071  -11.7841 O.3         1 ACR      -0.3780
     11 O6A       -17.7570   -9.3464  -12.9395 O.3         1 ACR      -0.3839
     12 C1B       -17.8046   -6.9591   -5.8069 C.3         1 ACR       0.1886
     13 C2B       -17.2572   -5.8277   -6.7314 C.3         1 ACR       0.1370
     14 C3B       -18.3475   -5.3983   -7.7505 C.3         1 ACR       0.1304
     15 C4B       -18.8343   -6.6244   -8.5731 C.3         1 ACR       0.0341
     16 C5B       -19.2450   -7.7916   -7.6165 C.3         1 ACR       0.1038
     17 C6B       -19.5037   -9.1231   -8.3704 C.3         1 ACR      -0.0332
     18 N4B       -19.9519   -6.2352   -9.4908 N.4         1 ACR       0.2433
     19 O2B       -16.7528   -4.7356   -5.9734 O.3         1 ACR      -0.3840
     20 O3B       -17.8328   -4.3801   -8.5989 O.3         1 ACR      -0.3834
     21 O5B       -18.1969   -8.0644   -6.6488 O.3         1 ACR      -0.3401
     22 C1C       -21.1241   -3.5464   -3.0199 C.3         1 ACR       0.1884
     23 C2C       -21.7300   -4.2528   -4.2665 C.3         1 ACR       0.1341
     24 C3C       -21.0114   -5.6008   -4.5529 C.3         1 ACR       0.1144
     25 C4C       -19.4687   -5.4110   -4.6190 C.3         1 ACR       0.1184
     26 C5C       -19.0022   -4.7741   -3.2754 C.3         1 ACR       0.1134
     27 C6C       -17.4888   -4.4751   -3.1634 C.3         1 ACR       0.0730
     28 O2C       -23.1308   -4.4655   -4.1038 O.3         1 ACR      -0.3841
     29 O3C       -21.5052   -6.1683   -5.7682 O.3         1 ACR      -0.3864
     30 O4C       -18.9219   -6.7165   -4.9133 O.3         1 ACR      -0.3401
     31 O5C       -19.6882   -3.5066   -3.1296 O.3         1 ACR      -0.3405
     32 O6C       -17.1189   -4.2115   -1.8133 O.3         1 ACR      -0.3924
     33 C1D       -19.6838   -3.7386    2.0431 C.3         1 ACR       0.1854
     34 C2D       -21.0913   -4.3749    1.9650 C.3         1 ACR       0.1339
     35 C3D       -21.4289   -4.7560    0.5015 C.3         1 ACR       0.1144
     36 C4D       -21.2314   -3.5758   -0.5000 C.3         1 ACR       0.1184
     37 C5D       -19.8486   -2.8540   -0.2493 C.3         1 ACR       0.1134
     38 C6D       -19.6940   -1.4536   -0.9273 C.3         1 ACR       0.0730
     39 O1D       -18.6354   -4.6663    1.7484 O.3         1 ACR      -0.3649
     40 O2D       -21.1844   -5.5084    2.8285 O.3         1 ACR      -0.3841
     41 O3D       -22.7780   -5.2268    0.4359 O.3         1 ACR      -0.3864
     42 O4D       -21.4792   -4.1964   -1.7889 O.3         1 ACR      -0.3401
     43 O5D       -19.6360   -2.6081    1.1601 O.3         1 ACR      -0.3407
     44 O6D       -18.6279   -1.4270   -1.8760 O.3         1 ACR      -0.3924
     45 H1        -18.9132   -5.2016  -11.0233 H           1 ACR       0.0950
     46 H2        -20.5539   -5.4135  -12.7889 H           1 ACR       0.0694
     47 H3        -22.2530   -7.0452  -10.8491 H           1 ACR       0.0671
     48 H4        -21.1496   -8.2440  -13.4034 H           1 ACR       0.0769
     49 H5        -19.5556  -10.2965  -12.6902 H           1 ACR       0.0706
     50 H6        -18.6636   -9.9778  -11.2113 H           1 ACR       0.0706
     51 H7        -18.0018   -7.3268  -11.3321 H           1 ACR       0.0299
     52 H8        -22.3264   -4.8217  -10.8121 H           1 ACR       0.2103
     53 H9        -23.3808   -7.4170  -12.8670 H           1 ACR       0.2102
     54 H10       -22.6103   -9.3936  -12.3414 H           1 ACR       0.2130
     55 H11       -18.0529   -9.3928  -13.8709 H           1 ACR       0.2125
     56 H12       -16.9778   -7.3207   -5.1907 H           1 ACR       0.0938
     57 H13       -16.4016   -6.2260   -7.2894 H           1 ACR       0.0672
     58 H14       -19.1982   -4.9689   -7.2249 H           1 ACR       0.0679
     59 H15       -17.9701   -6.9820   -9.1431 H           1 ACR       0.0903
     60 H16       -20.1686   -7.5140   -7.0950 H           1 ACR       0.0652
     61 H17       -19.7629   -9.9089   -7.6563 H           1 ACR       0.0257
     62 H18       -18.6068   -9.4327   -8.9188 H           1 ACR       0.0257
     63 H19       -20.3315   -9.0214   -9.0767 H           1 ACR       0.0257
     64 H20       -20.6613   -6.9682   -9.4476 H           1 ACR       0.2029
     65 H21       -20.3810   -5.3797   -9.1195 H           1 ACR       0.2029
     66 H22       -17.0322   -3.9264   -6.4514 H           1 ACR       0.2101
     67 H23       -16.8647   -4.5522   -8.6451 H           1 ACR       0.2102
     68 H24       -21.5052   -2.5238   -3.0181 H           1 ACR       0.0938
     69 H25       -21.5910   -3.5923   -5.1301 H           1 ACR       0.0671
     70 H26       -21.2579   -6.3130   -3.7524 H           1 ACR       0.0648
     71 H27       -19.2818   -4.6941   -5.4200 H           1 ACR       0.0651
     72 H28       -19.2627   -5.4535   -2.4497 H           1 ACR       0.0647
     73 H29       -17.2360   -3.5940   -3.7532 H           1 ACR       0.0584
     74 H30       -16.9050   -5.3252   -3.5121 H           1 ACR       0.0584
     75 H31       -23.3903   -5.0349   -4.8587 H           1 ACR       0.2101
     76 H32       -21.5354   -5.4304   -6.4120 H           1 ACR       0.2100
     77 H33       -17.2441   -5.0574   -1.3317 H           1 ACR       0.2095
     78 H34       -19.5182   -3.3679    3.0585 H           1 ACR       0.0935
     79 H35       -21.8192   -3.6388    2.3158 H           1 ACR       0.0671
     80 H36       -20.7781   -5.5859    0.2035 H           1 ACR       0.0648
     81 H37       -22.0309   -2.8495   -0.3198 H           1 ACR       0.0651
     82 H38       -19.0449   -3.5044   -0.6035 H           1 ACR       0.0647
     83 H39       -19.4585   -0.6750   -0.1937 H           1 ACR       0.0584
     84 H40       -20.6246   -1.1579   -1.4224 H           1 ACR       0.0584
     85 H41       -18.5517   -5.2361    2.5421 H           1 ACR       0.2126
     86 H42       -20.6144   -6.1979    2.4281 H           1 ACR       0.2101
     87 H43       -22.7802   -6.0924    0.8944 H           1 ACR       0.2100
     88 H44       -18.8608   -0.7465   -2.5423 H           1 ACR       0.2095
@<TRIPOS>BOND
     1     1     2   1
     2     1     7   1
     3    18     1   1
     4     2     3   1
     5     2     8   1
     6     3     4   1
     7     3     9   1
     8     5     4   1
     9     4    10   1
    10     5     6   1
    11     7     5   2
    12     6    11   1
    13    12    13   1
    14    12    21   1
    15    30    12   1
    16    13    14   1
    17    13    19   1
    18    14    15   1
    19    14    20   1
    20    16    15   1
    21    15    18   1
    22    16    17   1
    23    21    16   1
    24    22    23   1
    25    22    31   1
    26    42    22   1
    27    23    24   1
    28    23    28   1
    29    24    25   1
    30    24    29   1
    31    26    25   1
    32    25    30   1
    33    26    27   1
    34    31    26   1
    35    27    32   1
    36    34    33   1
    37    33    39   1
    38    33    43   1
    39    35    34   1
    40    34    40   1
    41    36    35   1
    42    35    41   1
    43    36    37   1
    44    36    42   1
    45    37    38   1
    46    37    43   1
    47    38    44   1
    48     1    45   1
    49     2    46   1
    50     3    47   1
    51     4    48   1
    52     6    49   1
    53     6    50   1
    54     7    51   1
    55     8    52   1
    56     9    53   1
    57    10    54   1
    58    11    55   1
    59    12    56   1
    60    13    57   1
    61    14    58   1
    62    15    59   1
    63    16    60   1
    64    17    61   1
    65    17    62   1
    66    17    63   1
    67    18    64   1
    68    18    65   1
    69    19    66   1
    70    20    67   1
    71    22    68   1
    72    23    69   1
    73    24    70   1
    74    25    71   1
    75    26    72   1
    76    27    73   1
    77    27    74   1
    78    28    75   1
    79    29    76   1
    80    32    77   1
    81    33    78   1
    82    34    79   1
    83    35    80   1
    84    36    81   1
    85    37    82   1
    86    38    83   1
    87    38    84   1
    88    39    85   1
    89    40    86   1
    90    41    87   1
    91    44    88   1
@<TRIPOS>SUBSTRUCTURE
     1  ACR      1

