@<TRIPOS>MOLECULE
2qmj_ligand_051
    88    91
SMALL
GAST_HUCK
****
This file was generated by PARSER (from files_GN.cpp)

@<TRIPOS>ATOM
      1 C1A       -19.5610   -5.8595  -10.9158 C.3         1 ACR       0.0141
      2 C2A       -20.7925   -5.6007  -11.8346 C.3         1 ACR       0.1303
      3 C3A       -21.5789   -6.9250  -12.0332 C.3         1 ACR       0.1215
      4 C4A       -20.6470   -8.0620  -12.5646 C.3         1 ACR       0.1112
      5 C5A       -19.2225   -7.9871  -12.1737 C.2         1 ACR      -0.0200
      6 C6A       -18.2945   -8.9982  -12.6809 C.3         1 ACR       0.0719
      7 C7A       -18.7455   -6.9387  -11.4655 C.2         1 ACR      -0.0543
      8 O2A       -21.5992   -4.5542  -11.3023 O.3         1 ACR      -0.3821
      9 O3A       -22.6744   -6.7173  -12.9282 O.3         1 ACR      -0.3843
     10 O4A       -21.2152   -9.3061  -12.1469 O.3         1 ACR      -0.3780
     11 O6A       -18.7719  -10.3154  -12.4229 O.3         1 ACR      -0.3839
     12 C1B       -18.0165   -6.9750   -5.7277 C.3         1 ACR       0.1886
     13 C2B       -17.7213   -5.6010   -6.3916 C.3         1 ACR       0.1370
     14 C3B       -18.8060   -5.2701   -7.4555 C.3         1 ACR       0.1304
     15 C4B       -18.9207   -6.4276   -8.4899 C.3         1 ACR       0.0341
     16 C5B       -19.1976   -7.7665   -7.7329 C.3         1 ACR       0.1038
     17 C6B       -19.1906   -9.0108   -8.6535 C.3         1 ACR      -0.0332
     18 N4B       -19.9787   -6.1380   -9.5078 N.4         1 ACR       0.2433
     19 O2B       -17.6492   -4.5847   -5.3883 O.3         1 ACR      -0.3840
     20 O3B       -18.4899   -4.0568   -8.1301 O.3         1 ACR      -0.3834
     21 O5B       -18.1746   -7.9875   -6.7409 O.3         1 ACR      -0.3401
     22 C1C       -17.4971   -9.8532   -3.0528 C.3         1 ACR       0.1884
     23 C2C       -18.5080  -10.1426   -4.2006 C.3         1 ACR       0.1341
     24 C3C       -19.7621   -9.2170   -4.1562 C.3         1 ACR       0.1144
     25 C4C       -19.4767   -7.7325   -3.7664 C.3         1 ACR       0.1184
     26 C5C       -18.4478   -7.6068   -2.5991 C.3         1 ACR       0.1134
     27 C6C       -19.0107   -7.8245   -1.1633 C.3         1 ACR       0.0730
     28 O2C       -17.8707  -10.0438   -5.4742 O.3         1 ACR      -0.3841
     29 O3C       -20.7057   -9.7617   -3.2284 O.3         1 ACR      -0.3864
     30 O4C       -19.1894   -6.8611   -4.8877 O.3         1 ACR      -0.3401
     31 O5C       -17.2995   -8.4393   -2.8535 O.3         1 ACR      -0.3405
     32 O6C       -19.5827   -6.6296   -0.6322 O.3         1 ACR      -0.3924
     33 C1D       -13.0544   -8.3427   -1.4800 C.3         1 ACR       0.1854
     34 C2D       -13.0177   -8.4409   -3.0278 C.3         1 ACR       0.1339
     35 C3D       -14.4085   -8.8449   -3.5867 C.3         1 ACR       0.1144
     36 C4D       -14.9605  -10.1145   -2.8652 C.3         1 ACR       0.1184
     37 C5D       -14.8693   -9.9852   -1.3089 C.3         1 ACR       0.1134
     38 C6D       -15.1756  -11.3173   -0.5755 C.3         1 ACR       0.0730
     39 O1D       -13.8331   -7.2243   -1.0419 O.3         1 ACR      -0.3649
     40 O2D       -12.6056   -7.1898   -3.5738 O.3         1 ACR      -0.3841
     41 O3D       -14.3104   -9.0818   -4.9918 O.3         1 ACR      -0.3864
     42 O4D       -16.2544  -10.5268   -3.3760 O.3         1 ACR      -0.3401
     43 O5D       -13.5435   -9.5718   -0.8986 O.3         1 ACR      -0.3407
     44 O6D       -14.2329  -12.3375   -0.8972 O.3         1 ACR      -0.3924
     45 H1        -18.9650   -4.9445  -10.9175 H           1 ACR       0.0950
     46 H2        -20.4469   -5.2555  -12.8134 H           1 ACR       0.0694
     47 H3        -22.0062   -7.2183  -11.0690 H           1 ACR       0.0671
     48 H4        -20.6823   -8.0395  -13.6578 H           1 ACR       0.0769
     49 H5        -17.2963   -8.9295  -12.2349 H           1 ACR       0.0706
     50 H6        -18.1691   -8.8658  -13.7571 H           1 ACR       0.0706
     51 H7        -17.7680   -6.8877  -11.2798 H           1 ACR       0.0299
     52 H8        -22.3636   -5.0032  -10.8924 H           1 ACR       0.2103
     53 H9        -23.1049   -7.5945  -13.0202 H           1 ACR       0.2102
     54 H10       -20.9433   -9.9583  -12.8237 H           1 ACR       0.2130
     55 H11       -18.0235  -10.9037  -12.6532 H           1 ACR       0.2125
     56 H12       -17.1364   -7.2412   -5.1444 H           1 ACR       0.0938
     57 H13       -16.7425   -5.6511   -6.8852 H           1 ACR       0.0672
     58 H14       -19.7658   -5.1273   -6.9552 H           1 ACR       0.0679
     59 H15       -17.9381   -6.5204   -8.9663 H           1 ACR       0.0903
     60 H16       -20.1782   -7.7167   -7.2456 H           1 ACR       0.0652
     61 H17       -19.3302   -9.9122   -8.0519 H           1 ACR       0.0257
     62 H18       -18.2377   -9.0940   -9.1828 H           1 ACR       0.0257
     63 H19       -19.9974   -8.9707   -9.3881 H           1 ACR       0.0257
     64 H20       -20.6114   -6.9372   -9.5316 H           1 ACR       0.2029
     65 H21       -20.5224   -5.3407   -9.1683 H           1 ACR       0.2029
     66 H22       -17.3317   -3.7824   -5.8549 H           1 ACR       0.2101
     67 H23       -18.2642   -3.4085   -7.4368 H           1 ACR       0.2102
     68 H24       -17.8829  -10.2891   -2.1241 H           1 ACR       0.0938
     69 H25       -18.8387  -11.1856   -4.1106 H           1 ACR       0.0671
     70 H26       -20.2541   -9.2309   -5.1330 H           1 ACR       0.0648
     71 H27       -20.4262   -7.3199   -3.4075 H           1 ACR       0.0651
     72 H28       -18.0653   -6.5844   -2.6123 H           1 ACR       0.0647
     73 H29       -18.1931   -8.1156   -0.4981 H           1 ACR       0.0584
     74 H30       -19.7638   -8.6142   -1.1444 H           1 ACR       0.0584
     75 H31       -17.1699  -10.7272   -5.4667 H           1 ACR       0.2101
     76 H32       -21.0608  -10.5712   -3.6567 H           1 ACR       0.2100
     77 H33       -20.4061   -6.4801   -1.1457 H           1 ACR       0.2095
     78 H34       -12.0326   -8.1911   -1.1210 H           1 ACR       0.0935
     79 H35       -12.2814   -9.2001   -3.3162 H           1 ACR       0.0671
     80 H36       -15.0736   -7.9969   -3.4433 H           1 ACR       0.0648
     81 H37       -14.2903  -10.9278   -3.1549 H           1 ACR       0.0651
     82 H38       -15.5920   -9.2411   -0.9644 H           1 ACR       0.0647
     83 H39       -16.1701  -11.6786   -0.8402 H           1 ACR       0.0584
     84 H40       -15.1489  -11.1612    0.5049 H           1 ACR       0.0584
     85 H41       -13.9148   -7.3373   -0.0694 H           1 ACR       0.2126
     86 H42       -12.9840   -7.1688   -4.4782 H           1 ACR       0.2101
     87 H43       -15.2344   -9.1419   -5.3138 H           1 ACR       0.2100
     88 H44       -13.3844  -12.0241   -0.5189 H           1 ACR       0.2095
@<TRIPOS>BOND
     1     1     2   1
     2     1     7   1
     3    18     1   1
     4     2     3   1
     5     2     8   1
     6     3     4   1
     7     3     9   1
     8     5     4   1
     9     4    10   1
    10     5     6   1
    11     7     5   2
    12     6    11   1
    13    12    13   1
    14    12    21   1
    15    30    12   1
    16    13    14   1
    17    13    19   1
    18    14    15   1
    19    14    20   1
    20    16    15   1
    21    15    18   1
    22    16    17   1
    23    21    16   1
    24    22    23   1
    25    22    31   1
    26    42    22   1
    27    23    24   1
    28    23    28   1
    29    24    25   1
    30    24    29   1
    31    26    25   1
    32    25    30   1
    33    26    27   1
    34    31    26   1
    35    27    32   1
    36    34    33   1
    37    33    39   1
    38    33    43   1
    39    35    34   1
    40    34    40   1
    41    36    35   1
    42    35    41   1
    43    36    37   1
    44    36    42   1
    45    37    38   1
    46    37    43   1
    47    38    44   1
    48     1    45   1
    49     2    46   1
    50     3    47   1
    51     4    48   1
    52     6    49   1
    53     6    50   1
    54     7    51   1
    55     8    52   1
    56     9    53   1
    57    10    54   1
    58    11    55   1
    59    12    56   1
    60    13    57   1
    61    14    58   1
    62    15    59   1
    63    16    60   1
    64    17    61   1
    65    17    62   1
    66    17    63   1
    67    18    64   1
    68    18    65   1
    69    19    66   1
    70    20    67   1
    71    22    68   1
    72    23    69   1
    73    24    70   1
    74    25    71   1
    75    26    72   1
    76    27    73   1
    77    27    74   1
    78    28    75   1
    79    29    76   1
    80    32    77   1
    81    33    78   1
    82    34    79   1
    83    35    80   1
    84    36    81   1
    85    37    82   1
    86    38    83   1
    87    38    84   1
    88    39    85   1
    89    40    86   1
    90    41    87   1
    91    44    88   1
@<TRIPOS>SUBSTRUCTURE
     1  ACR      1

