@<TRIPOS>MOLECULE
2qmj_ligand_016
    88    91
SMALL
GAST_HUCK
****
This file was generated by PARSER (from files_GN.cpp)

@<TRIPOS>ATOM
      1 C1A       -19.5962   -5.9214  -10.9543 C.3         1 ACR       0.0141
      2 C2A       -20.8716   -5.6254  -11.7936 C.3         1 ACR       0.1303
      3 C3A       -21.7402   -6.9053  -11.9054 C.3         1 ACR       0.1215
      4 C4A       -20.9023   -8.0920  -12.4873 C.3         1 ACR       0.1112
      5 C5A       -19.4609   -8.0856  -12.1795 C.2         1 ACR      -0.0200
      6 C6A       -18.6047   -9.1449  -12.7143 C.3         1 ACR       0.0719
      7 C7A       -18.8758   -7.0604  -11.5262 C.2         1 ACR      -0.0543
      8 O2A       -21.5869   -4.5102  -11.2672 O.3         1 ACR      -0.3821
      9 O3A       -22.8824   -6.6567  -12.7283 O.3         1 ACR      -0.3843
     10 O4A       -21.5102   -9.3098  -12.0437 O.3         1 ACR      -0.3780
     11 O6A       -17.4563   -9.3838  -11.9006 O.3         1 ACR      -0.3839
     12 C1B       -17.4643   -7.1546   -6.0349 C.3         1 ACR       0.1886
     13 C2B       -17.3922   -5.6992   -6.5818 C.3         1 ACR       0.1370
     14 C3B       -18.6035   -5.3769   -7.5047 C.3         1 ACR       0.1304
     15 C4B       -18.7615   -6.4688   -8.6016 C.3         1 ACR       0.0341
     16 C5B       -18.8992   -7.8531   -7.8961 C.3         1 ACR       0.1038
     17 C6B       -19.0423   -9.0600   -8.8491 C.3         1 ACR      -0.0332
     18 N4B       -19.9108   -6.1576   -9.5111 N.4         1 ACR       0.2433
     19 O2B       -17.3230   -4.7726   -5.4963 O.3         1 ACR      -0.3840
     20 O3B       -18.4544   -4.1087   -8.1352 O.3         1 ACR      -0.3834
     21 O5B       -17.7146   -8.0951   -7.1021 O.3         1 ACR      -0.3401
     22 C1C       -20.3477   -7.4448   -2.2157 C.3         1 ACR       0.1884
     23 C2C       -18.7950   -7.3538   -2.0363 C.3         1 ACR       0.1341
     24 C3C       -18.0164   -8.4017   -2.8884 C.3         1 ACR       0.1144
     25 C4C       -18.6079   -8.5304   -4.3249 C.3         1 ACR       0.1184
     26 C5C       -20.1331   -8.8063   -4.2825 C.3         1 ACR       0.1134
     27 C6C       -20.5863  -10.2178   -3.8151 C.3         1 ACR       0.0730
     28 O2C       -18.2809   -6.0662   -2.3393 O.3         1 ACR      -0.3841
     29 O3C       -17.9835   -9.6564   -2.2186 O.3         1 ACR      -0.3864
     30 O4C       -18.4724   -7.2651   -5.0184 O.3         1 ACR      -0.3401
     31 O5C       -20.7656   -7.7453   -3.5592 O.3         1 ACR      -0.3405
     32 O6C       -22.0097  -10.3041   -3.8303 O.3         1 ACR      -0.3924
     33 C1D       -21.5509   -3.0419   -4.5180 C.3         1 ACR       0.1854
     34 C2D       -20.7791   -2.7568   -3.2065 C.3         1 ACR       0.1339
     35 C3D       -20.3072   -4.1003   -2.5733 C.3         1 ACR       0.1144
     36 C4D       -21.4890   -5.0974   -2.3797 C.3         1 ACR       0.1184
     37 C5D       -22.3211   -5.2353   -3.7111 C.3         1 ACR       0.1134
     38 C6D       -23.6649   -6.0056   -3.5172 C.3         1 ACR       0.0730
     39 O1D       -20.6485   -3.5677   -5.4983 O.3         1 ACR      -0.3649
     40 O2D       -19.6613   -1.8994   -3.4512 O.3         1 ACR      -0.3841
     41 O3D       -19.6848   -3.8330   -1.3147 O.3         1 ACR      -0.3864
     42 O4D       -21.0882   -6.3185   -1.6870 O.3         1 ACR      -0.3401
     43 O5D       -22.6556   -3.9340   -4.2559 O.3         1 ACR      -0.3407
     44 O6D       -23.4848   -7.4147   -3.4509 O.3         1 ACR      -0.3924
     45 H1        -18.9596   -5.0355  -11.0180 H           1 ACR       0.0950
     46 H2        -20.5652   -5.3284  -12.8026 H           1 ACR       0.0694
     47 H3        -22.1091   -7.1633  -10.9105 H           1 ACR       0.0671
     48 H4        -20.9909   -8.0578  -13.5793 H           1 ACR       0.0769
     49 H5        -18.2641   -8.8748  -13.7193 H           1 ACR       0.0706
     50 H6        -19.1389  -10.0901  -12.7974 H           1 ACR       0.0706
     51 H7        -17.8828   -7.0628  -11.4116 H           1 ACR       0.0299
     52 H8        -22.3945   -4.8744  -10.8617 H           1 ACR       0.2103
     53 H9        -23.2873   -7.5364  -12.8873 H           1 ACR       0.2102
     54 H10       -21.3944   -9.9488  -12.7788 H           1 ACR       0.2130
     55 H11       -17.5170  -10.3320  -11.6449 H           1 ACR       0.2125
     56 H12       -16.4926   -7.3905   -5.5936 H           1 ACR       0.0938
     57 H13       -16.4706   -5.5935   -7.1652 H           1 ACR       0.0672
     58 H14       -19.5143   -5.3405   -6.9000 H           1 ACR       0.0679
     59 H15       -17.8233   -6.4907   -9.1635 H           1 ACR       0.0903
     60 H16       -19.7888   -7.8469   -7.2583 H           1 ACR       0.0652
     61 H17       -19.0943   -9.9835   -8.2692 H           1 ACR       0.0257
     62 H18       -18.1856   -9.1211   -9.5170 H           1 ACR       0.0257
     63 H19       -19.9540   -8.9851   -9.4418 H           1 ACR       0.0257
     64 H20       -20.5793   -6.9299   -9.4624 H           1 ACR       0.2029
     65 H21       -20.3867   -5.3293   -9.1422 H           1 ACR       0.2029
     66 H22       -17.1251   -3.9009   -5.9069 H           1 ACR       0.2101
     67 H23       -18.1616   -3.4802   -7.4452 H           1 ACR       0.2102
     68 H24       -20.6731   -8.2856   -1.5997 H           1 ACR       0.0938
     69 H25       -18.5649   -7.5092   -0.9780 H           1 ACR       0.0671
     70 H26       -16.9719   -8.0928   -2.9746 H           1 ACR       0.0648
     71 H27       -18.1205   -9.3525   -4.8581 H           1 ACR       0.0651
     72 H28       -20.5011   -8.7168   -5.3087 H           1 ACR       0.0647
     73 H29       -20.2393  -10.4339   -2.8061 H           1 ACR       0.0584
     74 H30       -20.1857  -10.9790   -4.4949 H           1 ACR       0.0584
     75 H31       -17.3856   -6.0437   -1.9482 H           1 ACR       0.2101
     76 H32       -17.3873  -10.2223   -2.7500 H           1 ACR       0.2100
     77 H33       -22.2355  -10.8107   -3.0228 H           1 ACR       0.2095
     78 H34       -21.9546   -2.1017   -4.9099 H           1 ACR       0.0935
     79 H35       -21.4447   -2.2375   -2.5133 H           1 ACR       0.0671
     80 H36       -19.5786   -4.5494   -3.2418 H           1 ACR       0.0648
     81 H37       -22.1679   -4.6161   -1.6698 H           1 ACR       0.0651
     82 H38       -21.7517   -5.7436   -4.4930 H           1 ACR       0.0647
     83 H39       -24.3330   -5.8068   -4.3642 H           1 ACR       0.0584
     84 H40       -24.1651   -5.6711   -2.6013 H           1 ACR       0.0584
     85 H41       -21.1719   -3.6730   -6.3136 H           1 ACR       0.2126
     86 H42       -19.2196   -2.2659   -4.2456 H           1 ACR       0.2101
     87 H43       -18.8333   -3.4012   -1.5311 H           1 ACR       0.2100
     88 H44       -23.0253   -7.5764   -2.5949 H           1 ACR       0.2095
@<TRIPOS>BOND
     1     1     2   1
     2     1     7   1
     3    18     1   1
     4     2     3   1
     5     2     8   1
     6     3     4   1
     7     3     9   1
     8     5     4   1
     9     4    10   1
    10     5     6   1
    11     7     5   2
    12     6    11   1
    13    12    13   1
    14    12    21   1
    15    30    12   1
    16    13    14   1
    17    13    19   1
    18    14    15   1
    19    14    20   1
    20    16    15   1
    21    15    18   1
    22    16    17   1
    23    21    16   1
    24    22    23   1
    25    22    31   1
    26    42    22   1
    27    23    24   1
    28    23    28   1
    29    24    25   1
    30    24    29   1
    31    26    25   1
    32    25    30   1
    33    26    27   1
    34    31    26   1
    35    27    32   1
    36    34    33   1
    37    33    39   1
    38    33    43   1
    39    35    34   1
    40    34    40   1
    41    36    35   1
    42    35    41   1
    43    36    37   1
    44    36    42   1
    45    37    38   1
    46    37    43   1
    47    38    44   1
    48     1    45   1
    49     2    46   1
    50     3    47   1
    51     4    48   1
    52     6    49   1
    53     6    50   1
    54     7    51   1
    55     8    52   1
    56     9    53   1
    57    10    54   1
    58    11    55   1
    59    12    56   1
    60    13    57   1
    61    14    58   1
    62    15    59   1
    63    16    60   1
    64    17    61   1
    65    17    62   1
    66    17    63   1
    67    18    64   1
    68    18    65   1
    69    19    66   1
    70    20    67   1
    71    22    68   1
    72    23    69   1
    73    24    70   1
    74    25    71   1
    75    26    72   1
    76    27    73   1
    77    27    74   1
    78    28    75   1
    79    29    76   1
    80    32    77   1
    81    33    78   1
    82    34    79   1
    83    35    80   1
    84    36    81   1
    85    37    82   1
    86    38    83   1
    87    38    84   1
    88    39    85   1
    89    40    86   1
    90    41    87   1
    91    44    88   1
@<TRIPOS>SUBSTRUCTURE
     1  ACR      1

