@<TRIPOS>MOLECULE
2qmj_ligand_031
    88    91
SMALL
GAST_HUCK
****
This file was generated by PARSER (from files_GN.cpp)

@<TRIPOS>ATOM
      1 C1A       -19.6278   -6.2259  -10.6414 C.3         1 ACR       0.0141
      2 C2A       -20.7682   -5.8144  -11.6233 C.3         1 ACR       0.1303
      3 C3A       -21.7572   -6.9929  -11.8093 C.3         1 ACR       0.1215
      4 C4A       -21.0003   -8.2727  -12.2858 C.3         1 ACR       0.1112
      5 C5A       -19.6490   -8.4715  -11.7303 C.2         1 ACR      -0.0200
      6 C6A       -18.9178   -9.7138  -11.9823 C.3         1 ACR       0.0719
      7 C7A       -19.0149   -7.4856  -11.0505 C.2         1 ACR      -0.0543
      8 O2A       -21.4249   -4.6282  -11.1886 O.3         1 ACR      -0.3821
      9 O3A       -22.7639   -6.6341  -12.7558 O.3         1 ACR      -0.3843
     10 O4A       -21.8523   -9.3960  -12.0165 O.3         1 ACR      -0.3780
     11 O6A       -17.7443   -9.4773  -12.7629 O.3         1 ACR      -0.3839
     12 C1B       -18.0861   -6.5286   -5.3456 C.3         1 ACR       0.1886
     13 C2B       -17.4042   -5.7279   -6.4917 C.3         1 ACR       0.1370
     14 C3B       -18.4473   -5.3262   -7.5739 C.3         1 ACR       0.1304
     15 C4B       -19.1425   -6.6092   -8.1293 C.3         1 ACR       0.0341
     16 C5B       -19.8111   -7.3566   -6.9232 C.3         1 ACR       0.1038
     17 C6B       -20.4318   -8.7201   -7.3153 C.3         1 ACR      -0.0332
     18 N4B       -20.1180   -6.3057   -9.2254 N.4         1 ACR       0.2433
     19 O2B       -16.6538   -4.6152   -6.0066 O.3         1 ACR      -0.3840
     20 O3B       -17.8141   -4.5741   -8.6043 O.3         1 ACR      -0.3834
     21 O5B       -18.8274   -7.6402   -5.8946 O.3         1 ACR      -0.3401
     22 C1C       -18.8109   -3.4929   -0.8790 C.3         1 ACR       0.1884
     23 C2C       -18.7607   -2.6979   -2.2103 C.3         1 ACR       0.1341
     24 C3C       -19.2049   -3.5853   -3.4056 C.3         1 ACR       0.1144
     25 C4C       -18.4228   -4.9323   -3.4431 C.3         1 ACR       0.1184
     26 C5C       -18.5336   -5.6269   -2.0425 C.3         1 ACR       0.1134
     27 C6C       -17.6926   -6.9278   -1.9152 C.3         1 ACR       0.0730
     28 O2C       -19.5569   -1.5158   -2.1018 O.3         1 ACR      -0.3841
     29 O3C       -18.9938   -2.8907   -4.6328 O.3         1 ACR      -0.3864
     30 O4C       -18.9833   -5.7477   -4.5117 O.3         1 ACR      -0.3401
     31 O5C       -18.0717   -4.7187   -1.0167 O.3         1 ACR      -0.3405
     32 O6C       -17.8286   -7.5050   -0.6164 O.3         1 ACR      -0.3924
     33 C1D       -22.2718   -5.3676    2.8252 C.3         1 ACR       0.1854
     34 C2D       -22.7212   -3.9760    2.3109 C.3         1 ACR       0.1339
     35 C3D       -22.1111   -3.7197    0.9099 C.3         1 ACR       0.1144
     36 C4D       -20.5589   -3.8504    0.9147 C.3         1 ACR       0.1184
     37 C5D       -20.1291   -5.1999    1.5984 C.3         1 ACR       0.1134
     38 C6D       -18.6334   -5.2841    2.0141 C.3         1 ACR       0.0730
     39 O1D       -22.8037   -6.4457    2.0536 O.3         1 ACR      -0.3649
     40 O2D       -24.1443   -3.8774    2.2754 O.3         1 ACR      -0.3841
     41 O3D       -22.4971   -2.4235    0.4545 O.3         1 ACR      -0.3864
     42 O4D       -20.1741   -3.7500   -0.4796 O.3         1 ACR      -0.3401
     43 O5D       -20.8365   -5.4351    2.8436 O.3         1 ACR      -0.3407
     44 O6D       -18.1618   -6.6346    1.9328 O.3         1 ACR      -0.3924
     45 H1        -18.8735   -5.4357  -10.7206 H           1 ACR       0.0950
     46 H2        -20.3291   -5.5862  -12.5981 H           1 ACR       0.0694
     47 H3        -22.2549   -7.1955  -10.8568 H           1 ACR       0.0671
     48 H4        -20.8794   -8.2079  -13.3747 H           1 ACR       0.0769
     49 H5        -19.5181  -10.4571  -12.5138 H           1 ACR       0.0706
     50 H6        -18.6137  -10.1660  -11.0307 H           1 ACR       0.0706
     51 H7        -18.0753   -7.6309  -10.7660 H           1 ACR       0.0299
     52 H8        -22.2822   -4.9134  -10.8235 H           1 ACR       0.2103
     53 H9        -23.2586   -7.4549  -12.9459 H           1 ACR       0.2102
     54 H10       -21.7426   -9.9896  -12.7909 H           1 ACR       0.2130
     55 H11       -18.0605   -9.4814  -13.6894 H           1 ACR       0.2125
     56 H12       -17.2952   -6.9707   -4.7384 H           1 ACR       0.0938
     57 H13       -16.6691   -6.3993   -6.9522 H           1 ACR       0.0672
     58 H14       -19.2016   -4.6736   -7.1260 H           1 ACR       0.0679
     59 H15       -18.3594   -7.2776   -8.5090 H           1 ACR       0.0903
     60 H16       -20.6025   -6.7335   -6.4978 H           1 ACR       0.0652
     61 H17       -20.8046   -9.2305   -6.4204 H           1 ACR       0.0257
     62 H18       -19.6856   -9.3604   -7.7959 H           1 ACR       0.0257
     63 H19       -21.2704   -8.5783   -7.9986 H           1 ACR       0.0257
     64 H20       -20.8263   -7.0388   -9.2181 H           1 ACR       0.2029
     65 H21       -20.5805   -5.4222   -8.9828 H           1 ACR       0.2029
     66 H22       -17.0276   -3.8197   -6.4410 H           1 ACR       0.2101
     67 H23       -17.0029   -5.0846   -8.8323 H           1 ACR       0.2102
     68 H24       -18.3039   -2.8951   -0.1166 H           1 ACR       0.0938
     69 H25       -17.7252   -2.3861   -2.3709 H           1 ACR       0.0671
     70 H26       -20.2789   -3.7939   -3.3216 H           1 ACR       0.0648
     71 H27       -17.3661   -4.6945   -3.6243 H           1 ACR       0.0651
     72 H28       -19.5797   -5.9018   -1.8577 H           1 ACR       0.0647
     73 H29       -16.6341   -6.7151   -2.1068 H           1 ACR       0.0584
     74 H30       -18.0432   -7.6726   -2.6448 H           1 ACR       0.0584
     75 H31       -19.2008   -0.8964   -2.7740 H           1 ACR       0.2101
     76 H32       -19.6464   -2.1566   -4.6394 H           1 ACR       0.2100
     77 H33       -17.3641   -6.8856   -0.0155 H           1 ACR       0.2095
     78 H34       -22.6171   -5.4927    3.8550 H           1 ACR       0.0935
     79 H35       -22.3565   -3.2103    3.0068 H           1 ACR       0.0671
     80 H36       -22.5261   -4.4579    0.2176 H           1 ACR       0.0648
     81 H37       -20.1517   -3.0088    1.4858 H           1 ACR       0.0651
     82 H38       -20.3521   -6.0165    0.9032 H           1 ACR       0.0647
     83 H39       -18.5067   -4.9227    3.0473 H           1 ACR       0.0584
     84 H40       -18.0052   -4.6784    1.3668 H           1 ACR       0.0584
     85 H41       -23.7424   -6.5231    2.3276 H           1 ACR       0.2126
     86 H42       -24.4292   -4.4882    1.5610 H           1 ACR       0.2101
     87 H43       -22.8844   -2.5834   -0.4371 H           1 ACR       0.2100
     88 H44       -18.6171   -7.1069    2.6655 H           1 ACR       0.2095
@<TRIPOS>BOND
     1     1     2   1
     2     1     7   1
     3    18     1   1
     4     2     3   1
     5     2     8   1
     6     3     4   1
     7     3     9   1
     8     5     4   1
     9     4    10   1
    10     5     6   1
    11     7     5   2
    12     6    11   1
    13    12    13   1
    14    12    21   1
    15    30    12   1
    16    13    14   1
    17    13    19   1
    18    14    15   1
    19    14    20   1
    20    16    15   1
    21    15    18   1
    22    16    17   1
    23    21    16   1
    24    22    23   1
    25    22    31   1
    26    42    22   1
    27    23    24   1
    28    23    28   1
    29    24    25   1
    30    24    29   1
    31    26    25   1
    32    25    30   1
    33    26    27   1
    34    31    26   1
    35    27    32   1
    36    34    33   1
    37    33    39   1
    38    33    43   1
    39    35    34   1
    40    34    40   1
    41    36    35   1
    42    35    41   1
    43    36    37   1
    44    36    42   1
    45    37    38   1
    46    37    43   1
    47    38    44   1
    48     1    45   1
    49     2    46   1
    50     3    47   1
    51     4    48   1
    52     6    49   1
    53     6    50   1
    54     7    51   1
    55     8    52   1
    56     9    53   1
    57    10    54   1
    58    11    55   1
    59    12    56   1
    60    13    57   1
    61    14    58   1
    62    15    59   1
    63    16    60   1
    64    17    61   1
    65    17    62   1
    66    17    63   1
    67    18    64   1
    68    18    65   1
    69    19    66   1
    70    20    67   1
    71    22    68   1
    72    23    69   1
    73    24    70   1
    74    25    71   1
    75    26    72   1
    76    27    73   1
    77    27    74   1
    78    28    75   1
    79    29    76   1
    80    32    77   1
    81    33    78   1
    82    34    79   1
    83    35    80   1
    84    36    81   1
    85    37    82   1
    86    38    83   1
    87    38    84   1
    88    39    85   1
    89    40    86   1
    90    41    87   1
    91    44    88   1
@<TRIPOS>SUBSTRUCTURE
     1  ACR      1

