@<TRIPOS>MOLECULE
2qmj_ligand_074
    88    91
SMALL
GAST_HUCK
****
This file was generated by PARSER (from files_GN.cpp)

@<TRIPOS>ATOM
      1 C1A       -19.4443   -6.1833  -10.3569 C.3         1 ACR       0.0141
      2 C2A       -20.5570   -5.8133  -11.3876 C.3         1 ACR       0.1303
      3 C3A       -21.4851   -7.0330  -11.6230 C.3         1 ACR       0.1215
      4 C4A       -20.6464   -8.2571  -12.1087 C.3         1 ACR       0.1112
      5 C5A       -19.3092   -8.4093  -11.5018 C.2         1 ACR      -0.0200
      6 C6A       -18.5312   -9.5997  -11.8637 C.3         1 ACR       0.0719
      7 C7A       -18.7807   -7.4338  -10.7231 C.2         1 ACR      -0.0543
      8 O2A       -21.2657   -4.6402  -10.9895 O.3         1 ACR      -0.3821
      9 O3A       -22.4961   -6.7209  -12.5835 O.3         1 ACR      -0.3843
     10 O4A       -21.4523   -9.4183  -11.8945 O.3         1 ACR      -0.3780
     11 O6A       -17.3750   -9.8862  -11.0742 O.3         1 ACR      -0.3839
     12 C1B       -18.0798   -5.7543   -5.0971 C.3         1 ACR       0.1886
     13 C2B       -17.1123   -5.7903   -6.3025 C.3         1 ACR       0.1370
     14 C3B       -17.8585   -5.6195   -7.6554 C.3         1 ACR       0.1304
     15 C4B       -19.0838   -6.5764   -7.7944 C.3         1 ACR       0.0341
     16 C5B       -19.9328   -6.5566   -6.4785 C.3         1 ACR       0.1038
     17 C6B       -21.0118   -7.6686   -6.4337 C.3         1 ACR      -0.0332
     18 N4B       -19.9678   -6.2437   -8.9562 N.4         1 ACR       0.2433
     19 O2B       -16.0965   -4.7986   -6.1568 O.3         1 ACR      -0.3840
     20 O3B       -16.9153   -5.8854   -8.6922 O.3         1 ACR      -0.3834
     21 O5B       -19.1173   -6.7388   -5.2961 O.3         1 ACR      -0.3401
     22 C1C       -19.7489   -4.0024   -0.7554 C.3         1 ACR       0.1884
     23 C2C       -20.8591   -4.5156   -1.7130 C.3         1 ACR       0.1341
     24 C3C       -20.2441   -5.0747   -3.0301 C.3         1 ACR       0.1144
     25 C4C       -19.2853   -4.0351   -3.6872 C.3         1 ACR       0.1184
     26 C5C       -18.2529   -3.4976   -2.6440 C.3         1 ACR       0.1134
     27 C6C       -17.3541   -2.3613   -3.2190 C.3         1 ACR       0.0730
     28 O2C       -21.6781   -5.4964   -1.0724 O.3         1 ACR      -0.3841
     29 O3C       -21.2809   -5.4227   -3.9452 O.3         1 ACR      -0.3864
     30 O4C       -18.6449   -4.4370   -4.9244 O.3         1 ACR      -0.3401
     31 O5C       -18.9486   -3.0205   -1.4618 O.3         1 ACR      -0.3405
     32 O6C       -17.3476   -1.1849   -2.4044 O.3         1 ACR      -0.3924
     33 C1D       -17.0072   -3.5499    3.2917 C.3         1 ACR       0.1854
     34 C2D       -16.1252   -3.6348    2.0219 C.3         1 ACR       0.1339
     35 C3D       -17.0069   -3.7643    0.7517 C.3         1 ACR       0.1144
     36 C4D       -18.0496   -4.9193    0.8833 C.3         1 ACR       0.1184
     37 C5D       -18.8276   -4.8177    2.2368 C.3         1 ACR       0.1134
     38 C6D       -19.6680   -6.0823    2.5667 C.3         1 ACR       0.0730
     39 O1D       -17.7166   -2.3129    3.3623 O.3         1 ACR      -0.3649
     40 O2D       -15.2610   -2.5007    1.9324 O.3         1 ACR      -0.3841
     41 O3D       -16.1639   -3.9783   -0.3820 O.3         1 ACR      -0.3864
     42 O4D       -18.9353   -5.0940   -0.2510 O.3         1 ACR      -0.3401
     43 O5D       -17.9139   -4.6673    3.3527 O.3         1 ACR      -0.3407
     44 O6D       -20.6739   -6.3419    1.5917 O.3         1 ACR      -0.3924
     45 H1        -18.7145   -5.3719  -10.4159 H           1 ACR       0.0950
     46 H2        -20.0816   -5.5614  -12.3389 H           1 ACR       0.0694
     47 H3        -21.9856   -7.2777  -10.6813 H           1 ACR       0.0671
     48 H4        -20.5001   -8.1521  -13.1910 H           1 ACR       0.0769
     49 H5        -18.1823   -9.4934  -12.8933 H           1 ACR       0.0706
     50 H6        -19.1698  -10.4817  -11.8111 H           1 ACR       0.0706
     51 H7        -17.8724   -7.5655  -10.3436 H           1 ACR       0.0299
     52 H8        -21.7198   -4.8713  -10.1576 H           1 ACR       0.2103
     53 H9        -22.9838   -7.5604  -12.7293 H           1 ACR       0.2102
     54 H10       -21.2939   -9.9944  -12.6677 H           1 ACR       0.2130
     55 H11       -17.6901   -9.9024  -10.1457 H           1 ACR       0.2125
     56 H12       -17.5065   -6.0431   -4.2112 H           1 ACR       0.0938
     57 H13       -16.6149   -6.7613   -6.2973 H           1 ACR       0.0672
     58 H14       -18.1911   -4.5820   -7.7543 H           1 ACR       0.0679
     59 H15       -18.7028   -7.5942   -7.9197 H           1 ACR       0.0903
     60 H16       -20.4583   -5.5982   -6.4023 H           1 ACR       0.0652
     61 H17       -21.5427   -7.6476   -5.4778 H           1 ACR       0.0257
     62 H18       -20.5532   -8.6525   -6.5496 H           1 ACR       0.0257
     63 H19       -21.7393   -7.5183   -7.2286 H           1 ACR       0.0257
     64 H20       -20.7180   -6.9360   -8.9633 H           1 ACR       0.2029
     65 H21       -20.3962   -5.3417   -8.7458 H           1 ACR       0.2029
     66 H22       -16.5193   -3.9369   -6.3630 H           1 ACR       0.2101
     67 H23       -16.0212   -5.7999   -8.2789 H           1 ACR       0.2102
     68 H24       -20.2459   -3.4933    0.0752 H           1 ACR       0.0938
     69 H25       -21.5125   -3.6744   -1.9629 H           1 ACR       0.0671
     70 H26       -19.6887   -5.9864   -2.7903 H           1 ACR       0.0648
     71 H27       -19.9130   -3.1812   -3.9702 H           1 ACR       0.0651
     72 H28       -17.5902   -4.3154   -2.3510 H           1 ACR       0.0647
     73 H29       -17.6792   -2.0681   -4.2202 H           1 ACR       0.0584
     74 H30       -16.3256   -2.7153   -3.2950 H           1 ACR       0.0584
     75 H31       -21.0840   -6.2443   -0.8602 H           1 ACR       0.2101
     76 H32       -21.7317   -6.1943   -3.5450 H           1 ACR       0.2100
     77 H33       -18.0140   -0.6013   -2.8348 H           1 ACR       0.2095
     78 H34       -16.3590   -3.6085    4.1697 H           1 ACR       0.0935
     79 H35       -15.4886   -4.5229    2.1046 H           1 ACR       0.0671
     80 H36       -17.5342   -2.8149    0.6020 H           1 ACR       0.0648
     81 H37       -17.4718   -5.8474    0.9266 H           1 ACR       0.0651
     82 H38       -19.5093   -3.9573    2.2111 H           1 ACR       0.0647
     83 H39       -20.1593   -5.9585    3.5373 H           1 ACR       0.0584
     84 H40       -19.0118   -6.9592    2.6305 H           1 ACR       0.0584
     85 H41       -18.4172   -2.4662    4.0311 H           1 ACR       0.2126
     86 H42       -15.8520   -1.7213    1.8523 H           1 ACR       0.2101
     87 H43       -15.7018   -4.8294   -0.2101 H           1 ACR       0.2100
     88 H44       -21.2978   -5.5889    1.6697 H           1 ACR       0.2095
@<TRIPOS>BOND
     1     1     2   1
     2     1     7   1
     3    18     1   1
     4     2     3   1
     5     2     8   1
     6     3     4   1
     7     3     9   1
     8     5     4   1
     9     4    10   1
    10     5     6   1
    11     7     5   2
    12     6    11   1
    13    12    13   1
    14    12    21   1
    15    30    12   1
    16    13    14   1
    17    13    19   1
    18    14    15   1
    19    14    20   1
    20    16    15   1
    21    15    18   1
    22    16    17   1
    23    21    16   1
    24    22    23   1
    25    22    31   1
    26    42    22   1
    27    23    24   1
    28    23    28   1
    29    24    25   1
    30    24    29   1
    31    26    25   1
    32    25    30   1
    33    26    27   1
    34    31    26   1
    35    27    32   1
    36    34    33   1
    37    33    39   1
    38    33    43   1
    39    35    34   1
    40    34    40   1
    41    36    35   1
    42    35    41   1
    43    36    37   1
    44    36    42   1
    45    37    38   1
    46    37    43   1
    47    38    44   1
    48     1    45   1
    49     2    46   1
    50     3    47   1
    51     4    48   1
    52     6    49   1
    53     6    50   1
    54     7    51   1
    55     8    52   1
    56     9    53   1
    57    10    54   1
    58    11    55   1
    59    12    56   1
    60    13    57   1
    61    14    58   1
    62    15    59   1
    63    16    60   1
    64    17    61   1
    65    17    62   1
    66    17    63   1
    67    18    64   1
    68    18    65   1
    69    19    66   1
    70    20    67   1
    71    22    68   1
    72    23    69   1
    73    24    70   1
    74    25    71   1
    75    26    72   1
    76    27    73   1
    77    27    74   1
    78    28    75   1
    79    29    76   1
    80    32    77   1
    81    33    78   1
    82    34    79   1
    83    35    80   1
    84    36    81   1
    85    37    82   1
    86    38    83   1
    87    38    84   1
    88    39    85   1
    89    40    86   1
    90    41    87   1
    91    44    88   1
@<TRIPOS>SUBSTRUCTURE
     1  ACR      1

