@<TRIPOS>MOLECULE
2qmj_ligand_052
    88    91
SMALL
GAST_HUCK
****
This file was generated by PARSER (from files_GN.cpp)

@<TRIPOS>ATOM
      1 C1A       -19.5834   -6.2735  -10.6842 C.3         1 ACR       0.0141
      2 C2A       -20.6938   -5.8268  -11.6795 C.3         1 ACR       0.1303
      3 C3A       -21.7196   -6.9715  -11.8914 C.3         1 ACR       0.1215
      4 C4A       -21.0153   -8.3055  -12.3008 C.3         1 ACR       0.1112
      5 C5A       -19.6597   -8.5175  -11.7696 C.2         1 ACR      -0.0200
      6 C6A       -18.9671   -9.7835  -12.0320 C.3         1 ACR       0.0719
      7 C7A       -18.9938   -7.5416  -11.1128 C.2         1 ACR      -0.0543
      8 O2A       -21.3151   -4.6191  -11.2375 O.3         1 ACR      -0.3821
      9 O3A       -22.6646   -6.5778  -12.8885 O.3         1 ACR      -0.3843
     10 O4A       -21.8569   -9.3935  -11.9155 O.3         1 ACR      -0.3780
     11 O6A       -17.7990   -9.5802  -12.8229 O.3         1 ACR      -0.3839
     12 C1B       -18.5129   -6.8272   -5.3035 C.3         1 ACR       0.1886
     13 C2B       -17.9113   -5.6884   -6.1749 C.3         1 ACR       0.1370
     14 C3B       -18.8906   -5.3660   -7.3402 C.3         1 ACR       0.1304
     15 C4B       -19.1417   -6.6516   -8.1852 C.3         1 ACR       0.0341
     16 C5B       -19.6583   -7.7988   -7.2531 C.3         1 ACR       0.1038
     17 C6B       -19.7557   -9.1724   -7.9675 C.3         1 ACR      -0.0332
     18 N4B       -20.1130   -6.3851   -9.2915 N.4         1 ACR       0.2433
     19 O2B       -17.6384   -4.5407   -5.3780 O.3         1 ACR      -0.3840
     20 O3B       -18.3971   -4.3099   -8.1657 O.3         1 ACR      -0.3834
     21 O5B       -18.7657   -7.9850   -6.1295 O.3         1 ACR      -0.3401
     22 C1C       -21.0812   -5.0974   -0.8109 C.3         1 ACR       0.1884
     23 C2C       -20.4737   -4.0282   -1.7588 C.3         1 ACR       0.1341
     24 C3C       -20.4356   -4.5523   -3.2229 C.3         1 ACR       0.1144
     25 C4C       -19.6759   -5.9128   -3.2854 C.3         1 ACR       0.1184
     26 C5C       -20.3410   -6.9177   -2.2851 C.3         1 ACR       0.1134
     27 C6C       -19.6136   -8.2813   -2.1880 C.3         1 ACR       0.0730
     28 O2C       -21.2028   -2.8046   -1.6550 O.3         1 ACR      -0.3841
     29 O3C       -19.8136   -3.5672   -4.0467 O.3         1 ACR      -0.3864
     30 O4C       -19.7417   -6.4326   -4.6349 O.3         1 ACR      -0.3401
     31 O5C       -20.3703   -6.3488   -0.9534 O.3         1 ACR      -0.3405
     32 O6C       -19.7747   -9.0445   -3.3822 O.3         1 ACR      -0.3924
     33 C1D       -23.0066   -5.5366    2.8119 C.3         1 ACR       0.1854
     34 C2D       -22.7176   -6.8014    1.9602 C.3         1 ACR       0.1339
     35 C3D       -23.5094   -6.7644    0.6215 C.3         1 ACR       0.1144
     36 C4D       -23.5029   -5.3799   -0.1094 C.3         1 ACR       0.1184
     37 C5D       -23.5564   -4.1454    0.8580 C.3         1 ACR       0.1134
     38 C6D       -24.9955   -3.6498    1.1957 C.3         1 ACR       0.0730
     39 O1D       -22.1567   -5.4990    3.9570 O.3         1 ACR      -0.3649
     40 O2D       -21.3174   -6.9266    1.7126 O.3         1 ACR      -0.3841
     41 O3D       -24.8596   -7.1728    0.8806 O.3         1 ACR      -0.3864
     42 O4D       -22.4800   -5.2670   -1.1255 O.3         1 ACR      -0.3401
     43 O5D       -22.7513   -4.3396    2.0493 O.3         1 ACR      -0.3407
     44 O6D       -24.9358   -2.4224    1.9256 O.3         1 ACR      -0.3924
     45 H1        -18.8057   -5.5036  -10.6996 H           1 ACR       0.0950
     46 H2        -20.2292   -5.5994  -12.6445 H           1 ACR       0.0694
     47 H3        -22.2676   -7.1199  -10.9552 H           1 ACR       0.0671
     48 H4        -20.9268   -8.3280  -13.3925 H           1 ACR       0.0769
     49 H5        -19.6033  -10.4995  -12.5560 H           1 ACR       0.0706
     50 H6        -18.6723  -10.2381  -11.0832 H           1 ACR       0.0706
     51 H7        -18.0474   -7.7068  -10.8430 H           1 ACR       0.0299
     52 H8        -21.8417   -4.8640  -10.4498 H           1 ACR       0.2103
     53 H9        -23.2732   -7.3394  -12.9887 H           1 ACR       0.2102
     54 H10       -22.6793   -9.2846  -12.4409 H           1 ACR       0.2130
     55 H11       -18.1377   -9.4584  -13.7320 H           1 ACR       0.2125
     56 H12       -17.7546   -7.1456   -4.5795 H           1 ACR       0.0938
     57 H13       -16.9574   -6.0283   -6.5945 H           1 ACR       0.0672
     58 H14       -19.8448   -5.0279   -6.9256 H           1 ACR       0.0679
     59 H15       -18.1735   -6.9693   -8.5902 H           1 ACR       0.0903
     60 H16       -20.6580   -7.5448   -6.8857 H           1 ACR       0.0652
     61 H17       -20.0846   -9.9387   -7.2590 H           1 ACR       0.0257
     62 H18       -18.7794   -9.4646   -8.3670 H           1 ACR       0.0257
     63 H19       -20.4779   -9.1351   -8.7844 H           1 ACR       0.0257
     64 H20       -20.8114   -7.1304   -9.2974 H           1 ACR       0.2029
     65 H21       -20.6053   -5.5185   -9.0638 H           1 ACR       0.2029
     66 H22       -17.2306   -3.8918   -5.9862 H           1 ACR       0.2101
     67 H23       -18.2063   -3.5659   -7.5597 H           1 ACR       0.2102
     68 H24       -20.9381   -4.7462    0.2150 H           1 ACR       0.0938
     69 H25       -19.4489   -3.8178   -1.4332 H           1 ACR       0.0671
     70 H26       -21.4608   -4.6829   -3.5858 H           1 ACR       0.0648
     71 H27       -18.6457   -5.7280   -2.9646 H           1 ACR       0.0651
     72 H28       -21.3683   -7.1187   -2.6117 H           1 ACR       0.0647
     73 H29       -20.0412   -8.8558   -1.3615 H           1 ACR       0.0584
     74 H30       -18.5502   -8.1222   -1.9912 H           1 ACR       0.0584
     75 H31       -20.8171   -2.2128   -2.3323 H           1 ACR       0.2101
     76 H32       -19.8878   -3.9179   -4.9594 H           1 ACR       0.2100
     77 H33       -19.2826   -9.8728   -3.2112 H           1 ACR       0.2095
     78 H34       -24.0393   -5.5573    3.1766 H           1 ACR       0.0935
     79 H35       -23.0151   -7.6857    2.5305 H           1 ACR       0.0671
     80 H36       -23.1000   -7.5257   -0.0509 H           1 ACR       0.0648
     81 H37       -24.4094   -5.3584   -0.7222 H           1 ACR       0.0651
     82 H38       -23.0894   -3.3126    0.3241 H           1 ACR       0.0647
     83 H39       -25.5404   -4.3801    1.7972 H           1 ACR       0.0584
     84 H40       -25.5596   -3.4689    0.2730 H           1 ACR       0.0584
     85 H41       -22.4088   -6.2869    4.4844 H           1 ACR       0.2126
     86 H42       -20.9005   -7.0088    2.5959 H           1 ACR       0.2101
     87 H43       -25.2203   -6.5179    1.5140 H           1 ACR       0.2100
     88 H44       -24.4730   -1.7900    1.3330 H           1 ACR       0.2095
@<TRIPOS>BOND
     1     1     2   1
     2     1     7   1
     3    18     1   1
     4     2     3   1
     5     2     8   1
     6     3     4   1
     7     3     9   1
     8     5     4   1
     9     4    10   1
    10     5     6   1
    11     7     5   2
    12     6    11   1
    13    12    13   1
    14    12    21   1
    15    30    12   1
    16    13    14   1
    17    13    19   1
    18    14    15   1
    19    14    20   1
    20    16    15   1
    21    15    18   1
    22    16    17   1
    23    21    16   1
    24    22    23   1
    25    22    31   1
    26    42    22   1
    27    23    24   1
    28    23    28   1
    29    24    25   1
    30    24    29   1
    31    26    25   1
    32    25    30   1
    33    26    27   1
    34    31    26   1
    35    27    32   1
    36    34    33   1
    37    33    39   1
    38    33    43   1
    39    35    34   1
    40    34    40   1
    41    36    35   1
    42    35    41   1
    43    36    37   1
    44    36    42   1
    45    37    38   1
    46    37    43   1
    47    38    44   1
    48     1    45   1
    49     2    46   1
    50     3    47   1
    51     4    48   1
    52     6    49   1
    53     6    50   1
    54     7    51   1
    55     8    52   1
    56     9    53   1
    57    10    54   1
    58    11    55   1
    59    12    56   1
    60    13    57   1
    61    14    58   1
    62    15    59   1
    63    16    60   1
    64    17    61   1
    65    17    62   1
    66    17    63   1
    67    18    64   1
    68    18    65   1
    69    19    66   1
    70    20    67   1
    71    22    68   1
    72    23    69   1
    73    24    70   1
    74    25    71   1
    75    26    72   1
    76    27    73   1
    77    27    74   1
    78    28    75   1
    79    29    76   1
    80    32    77   1
    81    33    78   1
    82    34    79   1
    83    35    80   1
    84    36    81   1
    85    37    82   1
    86    38    83   1
    87    38    84   1
    88    39    85   1
    89    40    86   1
    90    41    87   1
    91    44    88   1
@<TRIPOS>SUBSTRUCTURE
     1  ACR      1

