@<TRIPOS>MOLECULE
2qmj_ligand_049
    88    91
SMALL
GAST_HUCK
****
This file was generated by PARSER (from files_GN.cpp)

@<TRIPOS>ATOM
      1 C1A       -19.6026   -6.0465  -10.8419 C.3         1 ACR       0.0141
      2 C2A       -20.8188   -5.7033  -11.7524 C.3         1 ACR       0.1303
      3 C3A       -21.7383   -6.9475  -11.8840 C.3         1 ACR       0.1215
      4 C4A       -20.9245   -8.1780  -12.4016 C.3         1 ACR       0.1112
      5 C5A       -19.5017   -8.2353  -12.0104 C.2         1 ACR      -0.0200
      6 C6A       -18.6735   -9.3617  -12.4473 C.3         1 ACR       0.0719
      7 C7A       -18.9023   -7.2158  -11.3574 C.2         1 ACR      -0.0543
      8 O2A       -21.5146   -4.5486  -11.2766 O.3         1 ACR      -0.3821
      9 O3A       -22.8271   -6.6540  -12.7661 O.3         1 ACR      -0.3843
     10 O4A       -21.6106   -9.3619  -11.9798 O.3         1 ACR      -0.3780
     11 O6A       -17.8197   -9.8191  -11.4004 O.3         1 ACR      -0.3839
     12 C1B       -18.1175   -6.8922   -5.5923 C.3         1 ACR       0.1886
     13 C2B       -17.7805   -5.5759   -6.3422 C.3         1 ACR       0.1370
     14 C3B       -18.8238   -5.3106   -7.4576 C.3         1 ACR       0.1304
     15 C4B       -18.9392   -6.5295   -8.4171 C.3         1 ACR       0.0341
     16 C5B       -19.2166   -7.8222   -7.5771 C.3         1 ACR       0.1038
     17 C6B       -19.1894   -9.1212   -8.4256 C.3         1 ACR      -0.0332
     18 N4B       -20.0136   -6.2795   -9.4246 N.4         1 ACR       0.2433
     19 O2B       -17.7315   -4.4949   -5.4159 O.3         1 ACR      -0.3840
     20 O3B       -18.4762   -4.1483   -8.1995 O.3         1 ACR      -0.3834
     21 O5B       -18.2149   -7.9833   -6.5360 O.3         1 ACR      -0.3401
     22 C1C       -18.0949   -6.6654   -0.7378 C.3         1 ACR       0.1884
     23 C2C       -18.7740   -7.9754   -1.2216 C.3         1 ACR       0.1341
     24 C3C       -18.7494   -8.0817   -2.7707 C.3         1 ACR       0.1144
     25 C4C       -19.3849   -6.8065   -3.4071 C.3         1 ACR       0.1184
     26 C5C       -18.7859   -5.5008   -2.7780 C.3         1 ACR       0.1134
     27 C6C       -19.5916   -4.2248   -3.1763 C.3         1 ACR       0.0730
     28 O2C       -18.1662   -9.1218   -0.6214 O.3         1 ACR      -0.3841
     29 O3C       -19.4594   -9.2450   -3.1918 O.3         1 ACR      -0.3864
     30 O4C       -19.3588   -6.7550   -4.8539 O.3         1 ACR      -0.3401
     31 O5C       -18.7779   -5.5453   -1.3272 O.3         1 ACR      -0.3405
     32 O6C       -18.7883   -3.0412   -3.0398 O.3         1 ACR      -0.3924
     33 C1D       -15.0378   -5.0553    2.5666 C.3         1 ACR       0.1854
     34 C2D       -15.1054   -4.0339    1.4045 C.3         1 ACR       0.1339
     35 C3D       -16.0705   -4.5397    0.2992 C.3         1 ACR       0.1144
     36 C4D       -15.7264   -5.9995   -0.1498 C.3         1 ACR       0.1184
     37 C5D       -15.4251   -6.9536    1.0529 C.3         1 ACR       0.1134
     38 C6D       -14.6276   -8.2194    0.6171 C.3         1 ACR       0.0730
     39 O1D       -16.2799   -5.1761    3.2657 O.3         1 ACR      -0.3649
     40 O2D       -15.5254   -2.7578    1.8916 O.3         1 ACR      -0.3841
     41 O3D       -16.0068   -3.6497   -0.8161 O.3         1 ACR      -0.3864
     42 O4D       -16.6821   -6.6048   -1.0555 O.3         1 ACR      -0.3401
     43 O5D       -14.6076   -6.3314    2.0722 O.3         1 ACR      -0.3407
     44 O6D       -15.2274   -8.9184   -0.4750 O.3         1 ACR      -0.3924
     45 H1        -18.9374   -5.1808  -10.8813 H           1 ACR       0.0950
     46 H2        -20.4623   -5.4438  -12.7555 H           1 ACR       0.0694
     47 H3        -22.1668   -7.1744  -10.9016 H           1 ACR       0.0671
     48 H4        -20.9486   -8.1534  -13.4970 H           1 ACR       0.0769
     49 H5        -18.0612   -9.0671  -13.3068 H           1 ACR       0.0706
     50 H6        -19.2761  -10.2147  -12.7540 H           1 ACR       0.0706
     51 H7        -17.9247   -7.2568  -11.1786 H           1 ACR       0.0299
     52 H8        -22.3482   -4.8821  -10.8914 H           1 ACR       0.2103
     53 H9        -23.2842   -7.5123  -12.9145 H           1 ACR       0.2102
     54 H10       -21.4706  -10.0150  -12.6988 H           1 ACR       0.2130
     55 H11       -16.9659   -9.3466  -11.5272 H           1 ACR       0.2125
     56 H12       -17.2750   -7.1091   -4.9257 H           1 ACR       0.0938
     57 H13       -16.7882   -5.6756   -6.7945 H           1 ACR       0.0672
     58 H14       -19.7950   -5.1314   -6.9955 H           1 ACR       0.0679
     59 H15       -17.9693   -6.6685   -8.9073 H           1 ACR       0.0903
     60 H16       -20.2138   -7.7557   -7.1196 H           1 ACR       0.0652
     61 H17       -19.3326   -9.9941   -7.7805 H           1 ACR       0.0257
     62 H18       -18.2276   -9.2201   -8.9366 H           1 ACR       0.0257
     63 H19       -19.9892   -9.1125   -9.1708 H           1 ACR       0.0257
     64 H20       -20.6620   -7.0691   -9.4197 H           1 ACR       0.2029
     65 H21       -20.5397   -5.4607   -9.1076 H           1 ACR       0.2029
     66 H22       -17.3259   -3.7495   -5.9153 H           1 ACR       0.2101
     67 H23       -18.1890   -3.4865   -7.5438 H           1 ACR       0.2102
     68 H24       -18.2683   -6.6365    0.3356 H           1 ACR       0.0938
     69 H25       -19.8208   -7.9677   -0.8926 H           1 ACR       0.0671
     70 H26       -17.7117   -8.1796   -3.0900 H           1 ACR       0.0648
     71 H27       -20.4508   -6.8187   -3.1505 H           1 ACR       0.0651
     72 H28       -17.7603   -5.3718   -3.1448 H           1 ACR       0.0647
     73 H29       -20.4715   -4.1173   -2.5231 H           1 ACR       0.0584
     74 H30       -19.9532   -4.2889   -4.2155 H           1 ACR       0.0584
     75 H31       -17.2369   -9.1111   -0.9276 H           1 ACR       0.2101
     76 H32       -19.2412   -9.3577   -4.1398 H           1 ACR       0.2100
     77 H33       -18.1772   -3.0776   -3.8103 H           1 ACR       0.2095
     78 H34       -14.2902   -4.7136    3.2852 H           1 ACR       0.0935
     79 H35       -14.0993   -3.9191    0.9807 H           1 ACR       0.0671
     80 H36       -17.0817   -4.4855    0.7094 H           1 ACR       0.0648
     81 H37       -14.8015   -5.9152   -0.7221 H           1 ACR       0.0651
     82 H38       -16.3692   -7.2801    1.4992 H           1 ACR       0.0647
     83 H39       -14.5623   -8.9149    1.4648 H           1 ACR       0.0584
     84 H40       -13.6069   -7.9355    0.3244 H           1 ACR       0.0584
     85 H41       -16.4261   -4.3029    3.6881 H           1 ACR       0.2126
     86 H42       -15.3661   -2.1358    1.1438 H           1 ACR       0.2101
     87 H43       -16.7549   -3.9026   -1.3944 H           1 ACR       0.2100
     88 H44       -14.6299   -9.6793   -0.6493 H           1 ACR       0.2095
@<TRIPOS>BOND
     1     1     2   1
     2     1     7   1
     3    18     1   1
     4     2     3   1
     5     2     8   1
     6     3     4   1
     7     3     9   1
     8     5     4   1
     9     4    10   1
    10     5     6   1
    11     7     5   2
    12     6    11   1
    13    12    13   1
    14    12    21   1
    15    30    12   1
    16    13    14   1
    17    13    19   1
    18    14    15   1
    19    14    20   1
    20    16    15   1
    21    15    18   1
    22    16    17   1
    23    21    16   1
    24    22    23   1
    25    22    31   1
    26    42    22   1
    27    23    24   1
    28    23    28   1
    29    24    25   1
    30    24    29   1
    31    26    25   1
    32    25    30   1
    33    26    27   1
    34    31    26   1
    35    27    32   1
    36    34    33   1
    37    33    39   1
    38    33    43   1
    39    35    34   1
    40    34    40   1
    41    36    35   1
    42    35    41   1
    43    36    37   1
    44    36    42   1
    45    37    38   1
    46    37    43   1
    47    38    44   1
    48     1    45   1
    49     2    46   1
    50     3    47   1
    51     4    48   1
    52     6    49   1
    53     6    50   1
    54     7    51   1
    55     8    52   1
    56     9    53   1
    57    10    54   1
    58    11    55   1
    59    12    56   1
    60    13    57   1
    61    14    58   1
    62    15    59   1
    63    16    60   1
    64    17    61   1
    65    17    62   1
    66    17    63   1
    67    18    64   1
    68    18    65   1
    69    19    66   1
    70    20    67   1
    71    22    68   1
    72    23    69   1
    73    24    70   1
    74    25    71   1
    75    26    72   1
    76    27    73   1
    77    27    74   1
    78    28    75   1
    79    29    76   1
    80    32    77   1
    81    33    78   1
    82    34    79   1
    83    35    80   1
    84    36    81   1
    85    37    82   1
    86    38    83   1
    87    38    84   1
    88    39    85   1
    89    40    86   1
    90    41    87   1
    91    44    88   1
@<TRIPOS>SUBSTRUCTURE
     1  ACR      1

