@<TRIPOS>MOLECULE
2qmj_ligand_071
    88    91
SMALL
GAST_HUCK
****
This file was generated by PARSER (from files_GN.cpp)

@<TRIPOS>ATOM
      1 C1A       -20.4794   -7.2414  -10.0105 C.3         1 ACR       0.0141
      2 C2A       -19.6627   -8.4893  -10.4857 C.3         1 ACR       0.1303
      3 C3A       -20.3034   -9.1021  -11.7595 C.3         1 ACR       0.1215
      4 C4A       -20.4213   -8.0313  -12.8841 C.3         1 ACR       0.1112
      5 C5A       -20.9188   -6.7304  -12.4173 C.2         1 ACR      -0.0200
      6 C6A       -21.4145   -5.7658  -13.3950 C.3         1 ACR       0.0719
      7 C7A       -20.9506   -6.3984  -11.1059 C.2         1 ACR      -0.0543
      8 O2A       -18.2974   -8.1436  -10.7403 O.3         1 ACR      -0.3821
      9 O3A       -21.6163   -9.5873  -11.4567 O.3         1 ACR      -0.3843
     10 O4A       -19.1686   -7.8495  -13.5446 O.3         1 ACR      -0.3780
     11 O6A       -22.8103   -5.9702  -13.6207 O.3         1 ACR      -0.3839
     12 C1B       -18.1127   -6.3526   -5.1395 C.3         1 ACR       0.1886
     13 C2B       -17.1055   -6.0679   -6.2823 C.3         1 ACR       0.1370
     14 C3B       -17.8880   -5.7626   -7.5838 C.3         1 ACR       0.1304
     15 C4B       -18.8634   -6.9171   -7.9778 C.3         1 ACR       0.0341
     16 C5B       -19.6773   -7.4720   -6.7514 C.3         1 ACR       0.1038
     17 C6B       -20.0896   -8.9613   -6.9073 C.3         1 ACR      -0.0332
     18 N4B       -19.7324   -6.3628   -9.0721 N.4         1 ACR       0.2433
     19 O2B       -16.2326   -4.9848   -5.9443 O.3         1 ACR      -0.3840
     20 O3B       -16.9252   -5.5306   -8.6174 O.3         1 ACR      -0.3834
     21 O5B       -18.9600   -7.4578   -5.4957 O.3         1 ACR      -0.3401
     22 C1C       -20.0620   -3.2626   -2.0103 C.3         1 ACR       0.1884
     23 C2C       -19.8695   -4.8025   -1.8677 C.3         1 ACR       0.1341
     24 C3C       -20.5331   -5.5382   -3.0662 C.3         1 ACR       0.1144
     25 C4C       -20.1153   -4.9239   -4.4410 C.3         1 ACR       0.1184
     26 C5C       -20.2858   -3.3697   -4.4623 C.3         1 ACR       0.1134
     27 C6C       -21.7343   -2.8437   -4.7149 C.3         1 ACR       0.0730
     28 O2C       -18.4936   -5.1646   -1.8083 O.3         1 ACR      -0.3841
     29 O3C       -21.9562   -5.5145   -2.9102 O.3         1 ACR      -0.3864
     30 O4C       -18.7203   -5.1055   -4.7669 O.3         1 ACR      -0.3401
     31 O5C       -19.6665   -2.7742   -3.3025 O.3         1 ACR      -0.3405
     32 O6C       -21.8123   -1.9636   -5.8415 O.3         1 ACR      -0.3924
     33 C1D       -15.7470   -3.5014    0.9198 C.3         1 ACR       0.1854
     34 C2D       -16.9741   -3.1512    1.7946 C.3         1 ACR       0.1339
     35 C3D       -18.2894   -3.2412    0.9697 C.3         1 ACR       0.1144
     36 C4D       -18.1877   -2.4319   -0.3592 C.3         1 ACR       0.1184
     37 C5D       -16.8887   -2.8176   -1.1545 C.3         1 ACR       0.1134
     38 C6D       -16.5776   -1.9893   -2.4334 C.3         1 ACR       0.0730
     39 O1D       -15.7094   -4.8926    0.5950 O.3         1 ACR      -0.3649
     40 O2D       -17.0339   -3.9956    2.9462 O.3         1 ACR      -0.3841
     41 O3D       -19.3789   -2.7671    1.7670 O.3         1 ACR      -0.3864
     42 O4D       -19.4798   -2.4025   -1.0105 O.3         1 ACR      -0.3401
     43 O5D       -15.7363   -2.6914   -0.2786 O.3         1 ACR      -0.3407
     44 O6D       -16.8988   -0.6101   -2.3034 O.3         1 ACR      -0.3924
     45 H1        -21.3888   -7.5825   -9.5142 H           1 ACR       0.0950
     46 H2        -19.6631   -9.2479   -9.6971 H           1 ACR       0.0694
     47 H3        -19.7058   -9.9530  -12.1103 H           1 ACR       0.0671
     48 H4        -21.1115   -8.4280  -13.6371 H           1 ACR       0.0769
     49 H5        -20.8898   -5.8467  -14.3510 H           1 ACR       0.0706
     50 H6        -21.2577   -4.7433  -13.0339 H           1 ACR       0.0706
     51 H7        -21.3703   -5.5342  -10.8522 H           1 ACR       0.0299
     52 H8        -17.8134   -8.9968  -10.7885 H           1 ACR       0.2103
     53 H9        -21.4849  -10.2766  -10.7760 H           1 ACR       0.2102
     54 H10       -18.4901   -7.8555  -12.8379 H           1 ACR       0.2130
     55 H11       -22.9515   -6.9408  -13.5566 H           1 ACR       0.2125
     56 H12       -17.5343   -6.6874   -4.2702 H           1 ACR       0.0938
     57 H13       -16.4851   -6.9582   -6.4367 H           1 ACR       0.0672
     58 H14       -18.4594   -4.8287   -7.4404 H           1 ACR       0.0679
     59 H15       -18.2429   -7.7139   -8.3734 H           1 ACR       0.0903
     60 H16       -20.5943   -6.8788   -6.6399 H           1 ACR       0.0652
     61 H17       -20.5595   -9.3157   -5.9827 H           1 ACR       0.0257
     62 H18       -19.2008   -9.5784   -7.1120 H           1 ACR       0.0257
     63 H19       -20.8064   -9.0913   -7.7175 H           1 ACR       0.0257
     64 H20       -20.4233   -5.7353   -8.6241 H           1 ACR       0.2029
     65 H21       -19.1389   -5.7783   -9.6660 H           1 ACR       0.2029
     66 H22       -16.6529   -4.1716   -6.2858 H           1 ACR       0.2101
     67 H23       -17.2009   -6.0942   -9.3758 H           1 ACR       0.2102
     68 H24       -21.1384   -3.0644   -1.9068 H           1 ACR       0.0938
     69 H25       -20.3414   -5.1248   -0.9324 H           1 ACR       0.0671
     70 H26       -20.2430   -6.5857   -3.0339 H           1 ACR       0.0648
     71 H27       -20.7344   -5.3493   -5.2318 H           1 ACR       0.0651
     72 H28       -19.6877   -2.9955   -5.2961 H           1 ACR       0.0647
     73 H29       -22.0685   -2.2952   -3.8378 H           1 ACR       0.0584
     74 H30       -22.4358   -3.6622   -4.9000 H           1 ACR       0.0584
     75 H31       -18.4922   -6.1040   -1.5084 H           1 ACR       0.2101
     76 H32       -22.2834   -6.1615   -3.5843 H           1 ACR       0.2100
     77 H33       -20.9019   -1.5987   -5.9440 H           1 ACR       0.2095
     78 H34       -14.8388   -3.2673    1.4731 H           1 ACR       0.0935
     79 H35       -16.8516   -2.1239    2.1508 H           1 ACR       0.0671
     80 H36       -18.4908   -4.2877    0.7470 H           1 ACR       0.0648
     81 H37       -18.0419   -1.3920   -0.0459 H           1 ACR       0.0651
     82 H38       -16.9400   -3.8590   -1.4663 H           1 ACR       0.0647
     83 H39       -17.1205   -2.3971   -3.2807 H           1 ACR       0.0584
     84 H40       -15.5158   -2.0647   -2.6883 H           1 ACR       0.0584
     85 H41       -15.0463   -4.9715   -0.1237 H           1 ACR       0.2126
     86 H42       -17.1438   -4.9053    2.5992 H           1 ACR       0.2101
     87 H43       -19.1793   -1.8240    1.9506 H           1 ACR       0.2100
     88 H44       -17.4278   -0.4108   -3.1062 H           1 ACR       0.2095
@<TRIPOS>BOND
     1     1     2   1
     2     1     7   1
     3    18     1   1
     4     2     3   1
     5     2     8   1
     6     3     4   1
     7     3     9   1
     8     5     4   1
     9     4    10   1
    10     5     6   1
    11     7     5   2
    12     6    11   1
    13    12    13   1
    14    12    21   1
    15    30    12   1
    16    13    14   1
    17    13    19   1
    18    14    15   1
    19    14    20   1
    20    16    15   1
    21    15    18   1
    22    16    17   1
    23    21    16   1
    24    22    23   1
    25    22    31   1
    26    42    22   1
    27    23    24   1
    28    23    28   1
    29    24    25   1
    30    24    29   1
    31    26    25   1
    32    25    30   1
    33    26    27   1
    34    31    26   1
    35    27    32   1
    36    34    33   1
    37    33    39   1
    38    33    43   1
    39    35    34   1
    40    34    40   1
    41    36    35   1
    42    35    41   1
    43    36    37   1
    44    36    42   1
    45    37    38   1
    46    37    43   1
    47    38    44   1
    48     1    45   1
    49     2    46   1
    50     3    47   1
    51     4    48   1
    52     6    49   1
    53     6    50   1
    54     7    51   1
    55     8    52   1
    56     9    53   1
    57    10    54   1
    58    11    55   1
    59    12    56   1
    60    13    57   1
    61    14    58   1
    62    15    59   1
    63    16    60   1
    64    17    61   1
    65    17    62   1
    66    17    63   1
    67    18    64   1
    68    18    65   1
    69    19    66   1
    70    20    67   1
    71    22    68   1
    72    23    69   1
    73    24    70   1
    74    25    71   1
    75    26    72   1
    76    27    73   1
    77    27    74   1
    78    28    75   1
    79    29    76   1
    80    32    77   1
    81    33    78   1
    82    34    79   1
    83    35    80   1
    84    36    81   1
    85    37    82   1
    86    38    83   1
    87    38    84   1
    88    39    85   1
    89    40    86   1
    90    41    87   1
    91    44    88   1
@<TRIPOS>SUBSTRUCTURE
     1  ACR      1

