@<TRIPOS>MOLECULE
2qmj_ligand_070
    88    91
SMALL
GAST_HUCK
****
This file was generated by PARSER (from files_GN.cpp)

@<TRIPOS>ATOM
      1 C1A       -20.6260   -7.3988   -9.9126 C.3         1 ACR       0.0141
      2 C2A       -19.4117   -7.1039  -10.8514 C.3         1 ACR       0.1303
      3 C3A       -19.6523   -7.7238  -12.2601 C.3         1 ACR       0.1215
      4 C4A       -20.9774   -7.1758  -12.8766 C.3         1 ACR       0.1112
      5 C5A       -22.0832   -7.0024  -11.9207 C.2         1 ACR      -0.0200
      6 C6A       -23.4116   -6.5941  -12.3872 C.3         1 ACR       0.0719
      7 C7A       -21.9008   -7.1594  -10.5879 C.2         1 ACR      -0.0543
      8 O2A       -19.2241   -5.6874  -10.9510 O.3         1 ACR      -0.3821
      9 O3A       -19.6965   -9.1538  -12.1651 O.3         1 ACR      -0.3843
     10 O4A       -20.7220   -5.9190  -13.5079 O.3         1 ACR      -0.3780
     11 O6A       -23.5634   -6.5013  -13.8025 O.3         1 ACR      -0.3839
     12 C1B       -18.4164   -6.6019   -4.8932 C.3         1 ACR       0.1886
     13 C2B       -17.9969   -5.5827   -5.9881 C.3         1 ACR       0.1370
     14 C3B       -19.1509   -5.3993   -7.0157 C.3         1 ACR       0.1304
     15 C4B       -19.5310   -6.7786   -7.6423 C.3         1 ACR       0.0341
     16 C5B       -19.9339   -7.7417   -6.4705 C.3         1 ACR       0.1038
     17 C6B       -20.2426   -9.1869   -6.9355 C.3         1 ACR      -0.0332
     18 N4B       -20.6219   -6.6013   -8.6454 N.4         1 ACR       0.2433
     19 O2B       -17.6438   -4.3428   -5.3706 O.3         1 ACR      -0.3840
     20 O3B       -18.7810   -4.4337   -8.0043 O.3         1 ACR      -0.3834
     21 O5B       -18.8738   -7.8388   -5.4882 O.3         1 ACR      -0.3401
     22 C1C       -19.4985   -3.8297   -1.2228 C.3         1 ACR       0.1884
     23 C2C       -18.1907   -4.5867   -1.6015 C.3         1 ACR       0.1341
     24 C3C       -18.4243   -6.1164   -1.7586 C.3         1 ACR       0.1144
     25 C4C       -19.6378   -6.4182   -2.6924 C.3         1 ACR       0.1184
     26 C5C       -20.9013   -5.6377   -2.2025 C.3         1 ACR       0.1134
     27 C6C       -21.5973   -6.2311   -0.9426 C.3         1 ACR       0.0730
     28 O2C       -17.6351   -4.0598   -2.8118 O.3         1 ACR      -0.3841
     29 O3C       -18.6175   -6.7260   -0.4773 O.3         1 ACR      -0.3864
     30 O4C       -19.4144   -5.9792   -4.0528 O.3         1 ACR      -0.3401
     31 O5C       -20.6063   -4.2236   -2.0693 O.3         1 ACR      -0.3405
     32 O6C       -22.9000   -5.6840   -0.7616 O.3         1 ACR      -0.3924
     33 C1D       -19.2084   -0.7008    2.5191 C.3         1 ACR       0.1854
     34 C2D       -20.3501   -0.2347    1.5772 C.3         1 ACR       0.1339
     35 C3D       -20.5235   -1.2300    0.4007 C.3         1 ACR       0.1144
     36 C4D       -19.1704   -1.4666   -0.3350 C.3         1 ACR       0.1184
     37 C5D       -18.0018   -1.7902    0.6612 C.3         1 ACR       0.1134
     38 C6D       -16.5745   -1.7010    0.0450 C.3         1 ACR       0.0730
     39 O1D       -19.5578   -1.8941    3.2240 O.3         1 ACR      -0.3649
     40 O2D       -21.5684   -0.0778    2.3054 O.3         1 ACR      -0.3841
     41 O3D       -21.4970   -0.7315   -0.5187 O.3         1 ACR      -0.3864
     42 O4D       -19.3197   -2.4063   -1.4275 O.3         1 ACR      -0.3401
     43 O5D       -17.9825   -0.8731    1.7829 O.3         1 ACR      -0.3407
     44 O6D       -16.5259   -1.9224   -1.3610 O.3         1 ACR      -0.3924
     45 H1        -20.6033   -8.4578   -9.6477 H           1 ACR       0.0950
     46 H2        -18.4947   -7.5344  -10.4349 H           1 ACR       0.0694
     47 H3        -18.8071   -7.4751  -12.9120 H           1 ACR       0.0671
     48 H4        -21.2993   -7.8732  -13.6560 H           1 ACR       0.0769
     49 H5        -23.6402   -5.6087  -11.9720 H           1 ACR       0.0706
     50 H6        -24.1577   -7.3040  -12.0210 H           1 ACR       0.0706
     51 H7        -22.7062   -7.1314  -10.0015 H           1 ACR       0.0299
     52 H8        -18.6504   -5.5505  -11.7340 H           1 ACR       0.2103
     53 H9        -19.7887   -9.4901  -13.0860 H           1 ACR       0.2102
     54 H10       -20.2175   -6.1370  -14.3204 H           1 ACR       0.2130
     55 H11       -24.4534   -6.1125  -13.9310 H           1 ACR       0.2125
     56 H12       -17.5230   -6.8347   -4.3094 H           1 ACR       0.0938
     57 H13       -17.1104   -5.9637   -6.5086 H           1 ACR       0.0672
     58 H14       -20.0240   -4.9879   -6.4978 H           1 ACR       0.0679
     59 H15       -18.6332   -7.1811   -8.1211 H           1 ACR       0.0903
     60 H16       -20.8369   -7.3594   -5.9777 H           1 ACR       0.0652
     61 H17       -20.3964   -9.8366   -6.0679 H           1 ACR       0.0257
     62 H18       -19.4138   -9.5893   -7.5238 H           1 ACR       0.0257
     63 H19       -21.1522   -9.2104   -7.5409 H           1 ACR       0.0257
     64 H20       -21.4981   -6.8078   -8.1593 H           1 ACR       0.2029
     65 H21       -20.6594   -5.6127   -8.9038 H           1 ACR       0.2029
     66 H22       -17.2991   -3.7821   -6.0923 H           1 ACR       0.2101
     67 H23       -18.5440   -3.6229   -7.4989 H           1 ACR       0.2102
     68 H24       -19.7529   -4.0557   -0.1827 H           1 ACR       0.0938
     69 H25       -17.4454   -4.4322   -0.8150 H           1 ACR       0.0671
     70 H26       -17.5196   -6.5710   -2.1705 H           1 ACR       0.0648
     71 H27       -19.8467   -7.4928   -2.6952 H           1 ACR       0.0651
     72 H28       -21.6457   -5.7055   -3.0029 H           1 ACR       0.0647
     73 H29       -21.0227   -6.0408   -0.0359 H           1 ACR       0.0584
     74 H30       -21.7077   -7.3110   -1.0577 H           1 ACR       0.0584
     75 H31       -18.3367   -4.1654   -3.4892 H           1 ACR       0.2101
     76 H32       -17.7611   -6.6205   -0.0106 H           1 ACR       0.2100
     77 H33       -22.8692   -4.7751   -1.1291 H           1 ACR       0.2095
     78 H34       -19.0359    0.0829    3.2643 H           1 ACR       0.0935
     79 H35       -20.0840    0.7476    1.1747 H           1 ACR       0.0671
     80 H36       -20.9006   -2.1737    0.8014 H           1 ACR       0.0648
     81 H37       -18.9106   -0.5187   -0.8139 H           1 ACR       0.0651
     82 H38       -18.1486   -2.8013    1.0518 H           1 ACR       0.0647
     83 H39       -15.9279   -2.4397    0.5275 H           1 ACR       0.0584
     84 H40       -16.1374   -0.7155    0.2251 H           1 ACR       0.0584
     85 H41       -18.7191   -2.2007    3.6287 H           1 ACR       0.2126
     86 H42       -21.7845   -0.9700    2.6485 H           1 ACR       0.2101
     87 H43       -22.2833   -0.5178    0.0257 H           1 ACR       0.2100
     88 H44       -15.5728   -2.0022   -1.5749 H           1 ACR       0.2095
@<TRIPOS>BOND
     1     1     2   1
     2     1     7   1
     3    18     1   1
     4     2     3   1
     5     2     8   1
     6     3     4   1
     7     3     9   1
     8     5     4   1
     9     4    10   1
    10     5     6   1
    11     7     5   2
    12     6    11   1
    13    12    13   1
    14    12    21   1
    15    30    12   1
    16    13    14   1
    17    13    19   1
    18    14    15   1
    19    14    20   1
    20    16    15   1
    21    15    18   1
    22    16    17   1
    23    21    16   1
    24    22    23   1
    25    22    31   1
    26    42    22   1
    27    23    24   1
    28    23    28   1
    29    24    25   1
    30    24    29   1
    31    26    25   1
    32    25    30   1
    33    26    27   1
    34    31    26   1
    35    27    32   1
    36    34    33   1
    37    33    39   1
    38    33    43   1
    39    35    34   1
    40    34    40   1
    41    36    35   1
    42    35    41   1
    43    36    37   1
    44    36    42   1
    45    37    38   1
    46    37    43   1
    47    38    44   1
    48     1    45   1
    49     2    46   1
    50     3    47   1
    51     4    48   1
    52     6    49   1
    53     6    50   1
    54     7    51   1
    55     8    52   1
    56     9    53   1
    57    10    54   1
    58    11    55   1
    59    12    56   1
    60    13    57   1
    61    14    58   1
    62    15    59   1
    63    16    60   1
    64    17    61   1
    65    17    62   1
    66    17    63   1
    67    18    64   1
    68    18    65   1
    69    19    66   1
    70    20    67   1
    71    22    68   1
    72    23    69   1
    73    24    70   1
    74    25    71   1
    75    26    72   1
    76    27    73   1
    77    27    74   1
    78    28    75   1
    79    29    76   1
    80    32    77   1
    81    33    78   1
    82    34    79   1
    83    35    80   1
    84    36    81   1
    85    37    82   1
    86    38    83   1
    87    38    84   1
    88    39    85   1
    89    40    86   1
    90    41    87   1
    91    44    88   1
@<TRIPOS>SUBSTRUCTURE
     1  ACR      1

