@<TRIPOS>MOLECULE
2qmj_ligand_018
    88    91
SMALL
GAST_HUCK
****
This file was generated by PARSER (from files_GN.cpp)

@<TRIPOS>ATOM
      1 C1A       -19.6454   -6.1083  -10.8220 C.3         1 ACR       0.0141
      2 C2A       -20.8179   -5.7239  -11.7732 C.3         1 ACR       0.1303
      3 C3A       -21.8038   -6.9118  -11.9192 C.3         1 ACR       0.1215
      4 C4A       -21.0614   -8.2265  -12.3312 C.3         1 ACR       0.1112
      5 C5A       -19.6716   -8.3684  -11.8605 C.2         1 ACR      -0.0200
      6 C6A       -18.9471   -9.6196  -12.1003 C.3         1 ACR       0.0719
      7 C7A       -19.0156   -7.3479  -11.2652 C.2         1 ACR      -0.0543
      8 O2A       -21.4693   -4.5386  -11.3162 O.3         1 ACR      -0.3821
      9 O3A       -22.8094   -6.5763  -12.8774 O.3         1 ACR      -0.3843
     10 O4A       -21.8429   -9.3334  -11.8748 O.3         1 ACR      -0.3780
     11 O6A       -17.7592   -9.3939  -12.8573 O.3         1 ACR      -0.3839
     12 C1B       -18.5523   -6.9334   -5.4489 C.3         1 ACR       0.1886
     13 C2B       -17.9700   -5.7064   -6.2058 C.3         1 ACR       0.1370
     14 C3B       -18.8934   -5.3336   -7.3911 C.3         1 ACR       0.1304
     15 C4B       -19.0721   -6.5513   -8.3493 C.3         1 ACR       0.0341
     16 C5B       -19.4754   -7.8286   -7.5361 C.3         1 ACR       0.1038
     17 C6B       -19.4303   -9.1300   -8.3717 C.3         1 ACR      -0.0332
     18 N4B       -20.0959   -6.2409   -9.4028 N.4         1 ACR       0.2433
     19 O2B       -17.7702   -4.6068   -5.3286 O.3         1 ACR      -0.3840
     20 O3B       -18.3671   -4.2115   -8.1040 O.3         1 ACR      -0.3834
     21 O5B       -18.5958   -8.0260   -6.3914 O.3         1 ACR      -0.3401
     22 C1C       -22.5487   -6.3089   -2.3669 C.3         1 ACR       0.1884
     23 C2C       -22.7870   -6.6907   -3.8493 C.3         1 ACR       0.1341
     24 C3C       -21.9952   -5.7277   -4.7775 C.3         1 ACR       0.1144
     25 C4C       -20.4871   -5.6386   -4.3938 C.3         1 ACR       0.1184
     26 C5C       -20.2733   -5.4682   -2.8477 C.3         1 ACR       0.1134
     27 C6C       -20.3627   -3.9950   -2.3580 C.3         1 ACR       0.0730
     28 O2C       -22.3954   -8.0458   -4.0689 O.3         1 ACR      -0.3841
     29 O3C       -22.5964   -4.4342   -4.7613 O.3         1 ACR      -0.3864
     30 O4C       -19.8821   -6.8478   -4.8930 O.3         1 ACR      -0.3401
     31 O5C       -21.1353   -6.3371   -2.0638 O.3         1 ACR      -0.3405
     32 O6C       -19.3642   -3.1638   -2.9642 O.3         1 ACR      -0.3924
     33 C1D       -23.0665   -9.7827    1.7900 C.3         1 ACR       0.1854
     34 C2D       -21.9399   -8.7258    1.6703 C.3         1 ACR       0.1339
     35 C3D       -22.3479   -7.5996    0.6857 C.3         1 ACR       0.1144
     36 C4D       -22.8179   -8.1741   -0.6859 C.3         1 ACR       0.1184
     37 C5D       -23.9292   -9.2505   -0.4446 C.3         1 ACR       0.1134
     38 C6D       -24.3572  -10.0076   -1.7320 C.3         1 ACR       0.0730
     39 O1D       -24.1829   -9.3107    2.5486 O.3         1 ACR      -0.3649
     40 O2D       -21.6297   -8.1733    2.9492 O.3         1 ACR      -0.3841
     41 O3D       -21.2541   -6.6998    0.5250 O.3         1 ACR      -0.3864
     42 O4D       -23.3682   -7.1116   -1.4923 O.3         1 ACR      -0.3401
     43 O5D       -23.4763  -10.2561    0.4935 O.3         1 ACR      -0.3407
     44 O6D       -24.3359   -9.1637   -2.8865 O.3         1 ACR      -0.3924
     45 H1        -18.9086   -5.2993  -10.8782 H           1 ACR       0.0950
     46 H2        -20.4115   -5.4929  -12.7617 H           1 ACR       0.0694
     47 H3        -22.3055   -7.0606  -10.9585 H           1 ACR       0.0671
     48 H4        -21.0269   -8.2761  -13.4243 H           1 ACR       0.0769
     49 H5        -19.5503  -10.3553  -12.6382 H           1 ACR       0.0706
     50 H6        -18.6673  -10.0685  -11.1434 H           1 ACR       0.0706
     51 H7        -18.0557   -7.4693  -11.0332 H           1 ACR       0.0299
     52 H8        -22.2929   -4.8400  -10.8898 H           1 ACR       0.2103
     53 H9        -23.2881   -7.4121  -13.0606 H           1 ACR       0.2102
     54 H10       -22.6414   -9.3381  -12.4445 H           1 ACR       0.2130
     55 H11       -18.0562   -9.4247  -13.7897 H           1 ACR       0.2125
     56 H12       -17.8642   -7.2052   -4.6478 H           1 ACR       0.0938
     57 H13       -16.9854   -5.9724   -6.6119 H           1 ACR       0.0672
     58 H14       -19.8665   -5.0361   -6.9928 H           1 ACR       0.0679
     59 H15       -18.0953   -6.7482   -8.8025 H           1 ACR       0.0903
     60 H16       -20.5071   -7.7101   -7.1897 H           1 ACR       0.0652
     61 H17       -19.6611   -9.9866   -7.7328 H           1 ACR       0.0257
     62 H18       -18.4387   -9.2761   -8.8043 H           1 ACR       0.0257
     63 H19       -20.1694   -9.1025   -9.1749 H           1 ACR       0.0257
     64 H20       -20.8023   -6.9772   -9.3811 H           1 ACR       0.2029
     65 H21       -20.5647   -5.3728   -9.1273 H           1 ACR       0.2029
     66 H22       -16.8200   -4.6686   -5.0400 H           1 ACR       0.2101
     67 H23       -17.8021   -3.7270   -7.4630 H           1 ACR       0.2102
     68 H24       -22.9239   -5.2951   -2.2147 H           1 ACR       0.0938
     69 H25       -23.8501   -6.6067   -4.0850 H           1 ACR       0.0671
     70 H26       -22.0752   -6.0854   -5.8073 H           1 ACR       0.0648
     71 H27       -20.0700   -4.7826   -4.9225 H           1 ACR       0.0651
     72 H28       -19.2515   -5.7848   -2.6205 H           1 ACR       0.0647
     73 H29       -20.2274   -3.9573   -1.2671 H           1 ACR       0.0584
     74 H30       -21.3431   -3.5621   -2.5925 H           1 ACR       0.0584
     75 H31       -22.7035   -8.2682   -4.9700 H           1 ACR       0.2101
     76 H32       -22.4068   -4.0484   -5.6421 H           1 ACR       0.2100
     77 H33       -18.5138   -3.5017   -2.6054 H           1 ACR       0.2095
     78 H34       -22.6677  -10.6437    2.3310 H           1 ACR       0.0935
     79 H35       -21.0417   -9.2158    1.2868 H           1 ACR       0.0671
     80 H36       -23.1706   -7.0247    1.1215 H           1 ACR       0.0648
     81 H37       -21.9747   -8.6594   -1.1885 H           1 ACR       0.0651
     82 H38       -24.8238   -8.7634   -0.0437 H           1 ACR       0.0647
     83 H39       -25.3731  -10.3960   -1.6018 H           1 ACR       0.0584
     84 H40       -23.6832  -10.8513   -1.9058 H           1 ACR       0.0584
     85 H41       -24.4935   -8.4988    2.0975 H           1 ACR       0.2126
     86 H42       -21.2216   -8.9068    3.4573 H           1 ACR       0.2101
     87 H43       -20.5498   -7.2229    0.0860 H           1 ACR       0.2100
     88 H44       -24.8513   -8.3657   -2.6224 H           1 ACR       0.2095
@<TRIPOS>BOND
     1     1     2   1
     2     1     7   1
     3    18     1   1
     4     2     3   1
     5     2     8   1
     6     3     4   1
     7     3     9   1
     8     5     4   1
     9     4    10   1
    10     5     6   1
    11     7     5   2
    12     6    11   1
    13    12    13   1
    14    12    21   1
    15    30    12   1
    16    13    14   1
    17    13    19   1
    18    14    15   1
    19    14    20   1
    20    16    15   1
    21    15    18   1
    22    16    17   1
    23    21    16   1
    24    22    23   1
    25    22    31   1
    26    42    22   1
    27    23    24   1
    28    23    28   1
    29    24    25   1
    30    24    29   1
    31    26    25   1
    32    25    30   1
    33    26    27   1
    34    31    26   1
    35    27    32   1
    36    34    33   1
    37    33    39   1
    38    33    43   1
    39    35    34   1
    40    34    40   1
    41    36    35   1
    42    35    41   1
    43    36    37   1
    44    36    42   1
    45    37    38   1
    46    37    43   1
    47    38    44   1
    48     1    45   1
    49     2    46   1
    50     3    47   1
    51     4    48   1
    52     6    49   1
    53     6    50   1
    54     7    51   1
    55     8    52   1
    56     9    53   1
    57    10    54   1
    58    11    55   1
    59    12    56   1
    60    13    57   1
    61    14    58   1
    62    15    59   1
    63    16    60   1
    64    17    61   1
    65    17    62   1
    66    17    63   1
    67    18    64   1
    68    18    65   1
    69    19    66   1
    70    20    67   1
    71    22    68   1
    72    23    69   1
    73    24    70   1
    74    25    71   1
    75    26    72   1
    76    27    73   1
    77    27    74   1
    78    28    75   1
    79    29    76   1
    80    32    77   1
    81    33    78   1
    82    34    79   1
    83    35    80   1
    84    36    81   1
    85    37    82   1
    86    38    83   1
    87    38    84   1
    88    39    85   1
    89    40    86   1
    90    41    87   1
    91    44    88   1
@<TRIPOS>SUBSTRUCTURE
     1  ACR      1

