@<TRIPOS>MOLECULE
2qmj_ligand_034
    88    91
SMALL
GAST_HUCK
****
This file was generated by PARSER (from files_GN.cpp)

@<TRIPOS>ATOM
      1 C1A       -19.6132   -5.9588  -10.5560 C.3         1 ACR       0.0141
      2 C2A       -20.7345   -5.5346  -11.5549 C.3         1 ACR       0.1303
      3 C3A       -21.6524   -6.7408  -11.8695 C.3         1 ACR       0.1215
      4 C4A       -20.8096   -7.9231  -12.4468 C.3         1 ACR       0.1112
      5 C5A       -19.4601   -8.0836  -11.8735 C.2         1 ACR      -0.0200
      6 C6A       -18.5996   -9.1518  -12.3925 C.3         1 ACR       0.0719
      7 C7A       -18.9562   -7.1907  -10.9915 C.2         1 ACR      -0.0543
      8 O2A       -21.4668   -4.4087  -11.0764 O.3         1 ACR      -0.3821
      9 O3A       -22.6924   -6.3602  -12.7741 O.3         1 ACR      -0.3843
     10 O4A       -21.5715   -9.1175  -12.2711 O.3         1 ACR      -0.3780
     11 O6A       -19.1807  -10.4405  -12.2287 O.3         1 ACR      -0.3839
     12 C1B       -18.0647   -5.9807   -5.2889 C.3         1 ACR       0.1886
     13 C2B       -17.1847   -5.9074   -6.5648 C.3         1 ACR       0.1370
     14 C3B       -17.9889   -5.4992   -7.8248 C.3         1 ACR       0.1304
     15 C4B       -19.2594   -6.3880   -7.9912 C.3         1 ACR       0.0341
     16 C5B       -20.0971   -6.2820   -6.6685 C.3         1 ACR       0.1038
     17 C6B       -21.3431   -7.2062   -6.6567 C.3         1 ACR      -0.0332
     18 N4B       -20.1345   -6.0612   -9.1597 N.4         1 ACR       0.2433
     19 O2B       -16.0925   -5.0014   -6.3737 O.3         1 ACR      -0.3840
     20 O3B       -17.1102   -5.6423   -8.9364 O.3         1 ACR      -0.3834
     21 O5B       -19.3166   -6.6537   -5.5137 O.3         1 ACR      -0.3401
     22 C1C       -16.3736   -4.2411   -1.5459 C.3         1 ACR       0.1884
     23 C2C       -17.0209   -5.6187   -1.8813 C.3         1 ACR       0.1341
     24 C3C       -18.5084   -5.4839   -2.3100 C.3         1 ACR       0.1144
     25 C4C       -18.7171   -4.3833   -3.3997 C.3         1 ACR       0.1184
     26 C5C       -18.0422   -3.0454   -2.9502 C.3         1 ACR       0.1134
     27 C6C       -18.8024   -2.2117   -1.8834 C.3         1 ACR       0.0730
     28 O2C       -16.2793   -6.2671   -2.9141 O.3         1 ACR      -0.3841
     29 O3C       -19.3137   -5.2183   -1.1626 O.3         1 ACR      -0.3864
     30 O4C       -18.1669   -4.6650   -4.7106 O.3         1 ACR      -0.3401
     31 O5C       -16.6650   -3.2704   -2.5753 O.3         1 ACR      -0.3405
     32 O6C       -18.2263   -0.9124   -1.7564 O.3         1 ACR      -0.3924
     33 C1D       -11.5384   -6.0643    0.2877 C.3         1 ACR       0.1854
     34 C2D       -11.8053   -6.3277   -1.2193 C.3         1 ACR       0.1339
     35 C3D       -12.8090   -5.2761   -1.7566 C.3         1 ACR       0.1144
     36 C4D       -14.1122   -5.2701   -0.9072 C.3         1 ACR       0.1184
     37 C5D       -13.7628   -5.0779    0.6061 C.3         1 ACR       0.1134
     38 C6D       -14.9884   -5.2064    1.5398 C.3         1 ACR       0.0730
     39 O1D       -10.8447   -4.8342    0.5228 O.3         1 ACR      -0.3649
     40 O2D       -10.5983   -6.3305   -1.9787 O.3         1 ACR      -0.3841
     41 O3D       -13.0993   -5.5553   -3.1283 O.3         1 ACR      -0.3864
     42 O4D       -14.9294   -4.2188   -1.4738 O.3         1 ACR      -0.3401
     43 O5D       -12.7851   -6.0692    1.0162 O.3         1 ACR      -0.3407
     44 O6D       -14.5964   -5.2559    2.9088 O.3         1 ACR      -0.3924
     45 H1        -18.8798   -5.1516  -10.5851 H           1 ACR       0.0950
     46 H2        -20.2691   -5.2137  -12.4899 H           1 ACR       0.0694
     47 H3        -22.1407   -7.0606  -10.9425 H           1 ACR       0.0671
     48 H4        -20.6899   -7.7634  -13.5227 H           1 ACR       0.0769
     49 H5        -17.6228   -9.1909  -11.9026 H           1 ACR       0.0706
     50 H6        -18.4134   -8.9821  -13.4544 H           1 ACR       0.0706
     51 H7        -18.0472   -7.3554  -10.6243 H           1 ACR       0.0299
     52 H8        -22.3127   -4.7664  -10.7441 H           1 ACR       0.2103
     53 H9        -22.2357   -6.0702  -13.5914 H           1 ACR       0.2102
     54 H10       -22.3892   -8.9878  -12.7966 H           1 ACR       0.2130
     55 H11       -19.9410  -10.4527  -12.8456 H           1 ACR       0.2125
     56 H12       -17.5153   -6.6104   -4.5856 H           1 ACR       0.0938
     57 H13       -16.7539   -6.8984   -6.7366 H           1 ACR       0.0672
     58 H14       -18.2837   -4.4475   -7.7523 H           1 ACR       0.0679
     59 H15       -18.9378   -7.4281   -8.1036 H           1 ACR       0.0903
     60 H16       -20.4475   -5.2516   -6.5378 H           1 ACR       0.0652
     61 H17       -21.8609   -7.1282   -5.6968 H           1 ACR       0.0257
     62 H18       -21.0500   -8.2471   -6.8097 H           1 ACR       0.0257
     63 H19       -22.0486   -6.9253   -7.4384 H           1 ACR       0.0257
     64 H20       -20.8493   -6.7903   -9.1911 H           1 ACR       0.2029
     65 H21       -20.6138   -5.1894   -8.9357 H           1 ACR       0.2029
     66 H22       -16.4713   -4.0979   -6.4717 H           1 ACR       0.2101
     67 H23       -16.2138   -5.7245   -8.5504 H           1 ACR       0.2102
     68 H24       -16.7657   -3.8812   -0.5965 H           1 ACR       0.0938
     69 H25       -16.9681   -6.2520   -0.9889 H           1 ACR       0.0671
     70 H26       -18.8594   -6.4463   -2.6870 H           1 ACR       0.0648
     71 H27       -19.7907   -4.2297   -3.5373 H           1 ACR       0.0651
     72 H28       -17.9957   -2.3951   -3.8304 H           1 ACR       0.0647
     73 H29       -18.7719   -2.6844   -0.9035 H           1 ACR       0.0584
     74 H30       -19.8481   -2.0961   -2.1796 H           1 ACR       0.0584
     75 H31       -16.3669   -7.2277   -2.7250 H           1 ACR       0.2101
     76 H32       -20.2405   -5.2797   -1.4735 H           1 ACR       0.2100
     77 H33       -18.4991   -0.4375   -2.5679 H           1 ACR       0.2095
     78 H34       -10.9182   -6.8738    0.6766 H           1 ACR       0.0935
     79 H35       -12.2479   -7.3215   -1.3229 H           1 ACR       0.0671
     80 H36       -12.3398   -4.2867   -1.7163 H           1 ACR       0.0648
     81 H37       -14.5732   -6.2532   -1.0226 H           1 ACR       0.0651
     82 H38       -13.3457   -4.0786    0.7578 H           1 ACR       0.0647
     83 H39       -15.5598   -6.1079    1.3097 H           1 ACR       0.0584
     84 H40       -15.6383   -4.3400    1.4266 H           1 ACR       0.0584
     85 H41       -10.2704   -4.6826   -0.2581 H           1 ACR       0.2126
     86 H42       -10.3260   -5.3940   -2.0359 H           1 ACR       0.2101
     87 H43       -13.5753   -4.7620   -3.4540 H           1 ACR       0.2100
     88 H44       -14.1407   -6.1169    3.0214 H           1 ACR       0.2095
@<TRIPOS>BOND
     1     1     2   1
     2     1     7   1
     3    18     1   1
     4     2     3   1
     5     2     8   1
     6     3     4   1
     7     3     9   1
     8     5     4   1
     9     4    10   1
    10     5     6   1
    11     7     5   2
    12     6    11   1
    13    12    13   1
    14    12    21   1
    15    30    12   1
    16    13    14   1
    17    13    19   1
    18    14    15   1
    19    14    20   1
    20    16    15   1
    21    15    18   1
    22    16    17   1
    23    21    16   1
    24    22    23   1
    25    22    31   1
    26    42    22   1
    27    23    24   1
    28    23    28   1
    29    24    25   1
    30    24    29   1
    31    26    25   1
    32    25    30   1
    33    26    27   1
    34    31    26   1
    35    27    32   1
    36    34    33   1
    37    33    39   1
    38    33    43   1
    39    35    34   1
    40    34    40   1
    41    36    35   1
    42    35    41   1
    43    36    37   1
    44    36    42   1
    45    37    38   1
    46    37    43   1
    47    38    44   1
    48     1    45   1
    49     2    46   1
    50     3    47   1
    51     4    48   1
    52     6    49   1
    53     6    50   1
    54     7    51   1
    55     8    52   1
    56     9    53   1
    57    10    54   1
    58    11    55   1
    59    12    56   1
    60    13    57   1
    61    14    58   1
    62    15    59   1
    63    16    60   1
    64    17    61   1
    65    17    62   1
    66    17    63   1
    67    18    64   1
    68    18    65   1
    69    19    66   1
    70    20    67   1
    71    22    68   1
    72    23    69   1
    73    24    70   1
    74    25    71   1
    75    26    72   1
    76    27    73   1
    77    27    74   1
    78    28    75   1
    79    29    76   1
    80    32    77   1
    81    33    78   1
    82    34    79   1
    83    35    80   1
    84    36    81   1
    85    37    82   1
    86    38    83   1
    87    38    84   1
    88    39    85   1
    89    40    86   1
    90    41    87   1
    91    44    88   1
@<TRIPOS>SUBSTRUCTURE
     1  ACR      1

