@<TRIPOS>MOLECULE
2qmj_ligand_032
    88    91
SMALL
GAST_HUCK
****
This file was generated by PARSER (from files_GN.cpp)

@<TRIPOS>ATOM
      1 C1A       -19.6839   -6.2252  -10.5619 C.3         1 ACR       0.0141
      2 C2A       -20.7585   -5.7943  -11.6051 C.3         1 ACR       0.1303
      3 C3A       -21.7466   -6.9519  -11.8857 C.3         1 ACR       0.1215
      4 C4A       -20.9789   -8.2405  -12.3282 C.3         1 ACR       0.1112
      5 C5A       -19.6653   -8.4519  -11.7003 C.2         1 ACR      -0.0200
      6 C6A       -18.9141   -9.6787  -11.9822 C.3         1 ACR       0.0719
      7 C7A       -19.0930   -7.5157  -10.9125 C.2         1 ACR      -0.0543
      8 O2A       -21.4135   -4.5969  -11.1919 O.3         1 ACR      -0.3821
      9 O3A       -22.6725   -6.5463  -12.8957 O.3         1 ACR      -0.3843
     10 O4A       -21.8185   -9.3683  -12.0693 O.3         1 ACR      -0.3780
     11 O6A       -17.7414   -9.4023  -12.7483 O.3         1 ACR      -0.3839
     12 C1B       -17.9285   -5.9860   -5.3622 C.3         1 ACR       0.1886
     13 C2B       -17.1250   -5.9627   -6.7036 C.3         1 ACR       0.1370
     14 C3B       -17.9855   -5.7023   -7.9711 C.3         1 ACR       0.1304
     15 C4B       -19.3035   -6.5335   -7.9898 C.3         1 ACR       0.0341
     16 C5B       -20.0361   -6.2731   -6.6336 C.3         1 ACR       0.1038
     17 C6B       -21.3614   -7.0587   -6.4779 C.3         1 ACR      -0.0332
     18 N4B       -20.2007   -6.2265   -9.1538 N.4         1 ACR       0.2433
     19 O2B       -16.0579   -5.0150   -6.7072 O.3         1 ACR      -0.3840
     20 O3B       -17.1541   -6.0332   -9.0806 O.3         1 ACR      -0.3834
     21 O5B       -19.1887   -6.6694   -5.5347 O.3         1 ACR      -0.3401
     22 C1C       -16.1707   -2.6299   -1.5329 C.3         1 ACR       0.1884
     23 C2C       -16.9997   -1.8185   -2.5569 C.3         1 ACR       0.1341
     24 C3C       -17.9297   -2.7723   -3.3531 C.3         1 ACR       0.1144
     25 C4C       -17.1334   -3.9164   -4.0563 C.3         1 ACR       0.1184
     26 C5C       -16.1800   -4.6165   -3.0082 C.3         1 ACR       0.1134
     27 C6C       -15.1125   -5.6037   -3.5913 C.3         1 ACR       0.0730
     28 O2C       -17.7224   -0.7704   -1.9163 O.3         1 ACR      -0.3841
     29 O3C       -18.6688   -2.0043   -4.3044 O.3         1 ACR      -0.3864
     30 O4C       -18.1647   -4.7239   -4.7004 O.3         1 ACR      -0.3401
     31 O5C       -15.4294   -3.6276   -2.2527 O.3         1 ACR      -0.3405
     32 O6C       -13.7676   -5.3760   -3.1528 O.3         1 ACR      -0.3924
     33 C1D       -18.5301   -2.4946    3.3780 C.3         1 ACR       0.1854
     34 C2D       -19.3247   -1.9436    2.1602 C.3         1 ACR       0.1339
     35 C3D       -18.8695   -2.6319    0.8462 C.3         1 ACR       0.1144
     36 C4D       -17.3257   -2.5558    0.6822 C.3         1 ACR       0.1184
     37 C5D       -16.6610   -3.1819    1.9501 C.3         1 ACR       0.1134
     38 C6D       -15.1113   -3.1499    1.9284 C.3         1 ACR       0.0730
     39 O1D       -18.9381   -3.8170    3.7331 O.3         1 ACR      -0.3649
     40 O2D       -20.7306   -2.1052    2.3490 O.3         1 ACR      -0.3841
     41 O3D       -19.5058   -2.0175   -0.2733 O.3         1 ACR      -0.3864
     42 O4D       -16.9611   -3.2850   -0.5124 O.3         1 ACR      -0.3401
     43 O5D       -17.1066   -2.4686    3.1309 O.3         1 ACR      -0.3407
     44 O6D       -14.5727   -3.9939    0.9111 O.3         1 ACR      -0.3924
     45 H1        -18.9125   -5.4555  -10.6399 H           1 ACR       0.0950
     46 H2        -20.2547   -5.5544  -12.5435 H           1 ACR       0.0694
     47 H3        -22.3166   -7.1561  -10.9724 H           1 ACR       0.0671
     48 H4        -20.8130   -8.1935  -13.4099 H           1 ACR       0.0769
     49 H5        -19.5062  -10.4144  -12.5350 H           1 ACR       0.0706
     50 H6        -18.6084  -10.1465  -11.0421 H           1 ACR       0.0706
     51 H7        -18.2058   -7.7186  -10.5122 H           1 ACR       0.0299
     52 H8        -22.2522   -4.8880  -10.7828 H           1 ACR       0.2103
     53 H9        -23.2493   -7.3237  -13.0510 H           1 ACR       0.2102
     54 H10       -22.5910   -9.2563  -12.6621 H           1 ACR       0.2130
     55 H11       -18.0417   -9.4341  -13.6804 H           1 ACR       0.2125
     56 H12       -17.3932   -6.6251   -4.6602 H           1 ACR       0.0938
     57 H13       -16.6641   -6.9556   -6.8062 H           1 ACR       0.0672
     58 H14       -18.2366   -4.6381   -8.0323 H           1 ACR       0.0679
     59 H15       -19.0435   -7.5934   -8.0306 H           1 ACR       0.0903
     60 H16       -20.2702   -5.2070   -6.5385 H           1 ACR       0.0652
     61 H17       -21.7950   -6.8644   -5.4949 H           1 ACR       0.0257
     62 H18       -21.1894   -8.1330   -6.5750 H           1 ACR       0.0257
     63 H19       -22.0865   -6.7456   -7.2296 H           1 ACR       0.0257
     64 H20       -20.9551   -6.9166   -9.1306 H           1 ACR       0.2029
     65 H21       -20.6267   -5.3145   -8.9653 H           1 ACR       0.2029
     66 H22       -16.4835   -4.1392   -6.7661 H           1 ACR       0.2101
     67 H23       -16.2768   -5.6662   -8.8623 H           1 ACR       0.2102
     68 H24       -15.4296   -1.9712   -1.0765 H           1 ACR       0.0938
     69 H25       -16.3098   -1.3346   -3.2537 H           1 ACR       0.0671
     70 H26       -18.6462   -3.2203   -2.6600 H           1 ACR       0.0648
     71 H27       -16.5129   -3.4419   -4.8176 H           1 ACR       0.0651
     72 H28       -16.8175   -5.1758   -2.3100 H           1 ACR       0.0647
     73 H29       -15.0768   -5.5256   -4.6730 H           1 ACR       0.0584
     74 H30       -15.3782   -6.6322   -3.3241 H           1 ACR       0.0584
     75 H31       -18.3151   -0.4019   -2.6048 H           1 ACR       0.2101
     76 H32       -19.3149   -2.6276   -4.6998 H           1 ACR       0.2100
     77 H33       -13.7817   -5.4628   -2.1690 H           1 ACR       0.2095
     78 H34       -18.7263   -1.8514    4.2396 H           1 ACR       0.0935
     79 H35       -19.1308   -0.8703    2.0781 H           1 ACR       0.0671
     80 H36       -19.1752   -3.6832    0.8670 H           1 ACR       0.0648
     81 H37       -17.0377   -1.4978    0.6276 H           1 ACR       0.0651
     82 H38       -16.9555   -4.2332    2.0392 H           1 ACR       0.0647
     83 H39       -14.7237   -3.4968    2.8902 H           1 ACR       0.0584
     84 H40       -14.7574   -2.1303    1.7653 H           1 ACR       0.0584
     85 H41       -19.8265   -3.7198    4.1374 H           1 ACR       0.2126
     86 H42       -20.9038   -3.0669    2.2659 H           1 ACR       0.2101
     87 H43       -20.4648   -2.1863   -0.1500 H           1 ACR       0.2100
     88 H44       -14.8569   -4.9023    1.1474 H           1 ACR       0.2095
@<TRIPOS>BOND
     1     1     2   1
     2     1     7   1
     3    18     1   1
     4     2     3   1
     5     2     8   1
     6     3     4   1
     7     3     9   1
     8     5     4   1
     9     4    10   1
    10     5     6   1
    11     7     5   2
    12     6    11   1
    13    12    13   1
    14    12    21   1
    15    30    12   1
    16    13    14   1
    17    13    19   1
    18    14    15   1
    19    14    20   1
    20    16    15   1
    21    15    18   1
    22    16    17   1
    23    21    16   1
    24    22    23   1
    25    22    31   1
    26    42    22   1
    27    23    24   1
    28    23    28   1
    29    24    25   1
    30    24    29   1
    31    26    25   1
    32    25    30   1
    33    26    27   1
    34    31    26   1
    35    27    32   1
    36    34    33   1
    37    33    39   1
    38    33    43   1
    39    35    34   1
    40    34    40   1
    41    36    35   1
    42    35    41   1
    43    36    37   1
    44    36    42   1
    45    37    38   1
    46    37    43   1
    47    38    44   1
    48     1    45   1
    49     2    46   1
    50     3    47   1
    51     4    48   1
    52     6    49   1
    53     6    50   1
    54     7    51   1
    55     8    52   1
    56     9    53   1
    57    10    54   1
    58    11    55   1
    59    12    56   1
    60    13    57   1
    61    14    58   1
    62    15    59   1
    63    16    60   1
    64    17    61   1
    65    17    62   1
    66    17    63   1
    67    18    64   1
    68    18    65   1
    69    19    66   1
    70    20    67   1
    71    22    68   1
    72    23    69   1
    73    24    70   1
    74    25    71   1
    75    26    72   1
    76    27    73   1
    77    27    74   1
    78    28    75   1
    79    29    76   1
    80    32    77   1
    81    33    78   1
    82    34    79   1
    83    35    80   1
    84    36    81   1
    85    37    82   1
    86    38    83   1
    87    38    84   1
    88    39    85   1
    89    40    86   1
    90    41    87   1
    91    44    88   1
@<TRIPOS>SUBSTRUCTURE
     1  ACR      1

