@<TRIPOS>MOLECULE
2qmj_ligand_026
    88    91
SMALL
GAST_HUCK
****
This file was generated by PARSER (from files_GN.cpp)

@<TRIPOS>ATOM
      1 C1A       -19.5900   -5.9800  -11.1609 C.3         1 ACR       0.0141
      2 C2A       -20.7240   -5.6748  -12.1901 C.3         1 ACR       0.1303
      3 C3A       -21.6888   -6.8874  -12.2668 C.3         1 ACR       0.1215
      4 C4A       -20.9006   -8.2032  -12.5770 C.3         1 ACR       0.1112
      5 C5A       -19.4924   -8.2633  -12.1262 C.2         1 ACR      -0.0200
      6 C6A       -18.6828   -9.4487  -12.4104 C.3         1 ACR       0.0719
      7 C7A       -18.8818   -7.1815  -11.5908 C.2         1 ACR      -0.0543
      8 O2A       -21.4015   -4.4564  -11.8898 O.3         1 ACR      -0.3821
      9 O3A       -22.6840   -6.6490  -13.2620 O.3         1 ACR      -0.3843
     10 O4A       -21.6484   -9.2985  -12.0427 O.3         1 ACR      -0.3780
     11 O6A       -17.9243   -9.8670  -11.2787 O.3         1 ACR      -0.3839
     12 C1B       -18.9558   -6.8379   -5.7317 C.3         1 ACR       0.1886
     13 C2B       -18.1076   -5.7860   -6.5007 C.3         1 ACR       0.1370
     14 C3B       -18.8558   -5.3510   -7.7892 C.3         1 ACR       0.1304
     15 C4B       -19.2411   -6.5748   -8.6664 C.3         1 ACR       0.0341
     16 C5B       -19.9702   -7.6631   -7.8107 C.3         1 ACR       0.1038
     17 C6B       -20.1196   -9.0193   -8.5494 C.3         1 ACR      -0.0332
     18 N4B       -20.1406   -6.1542   -9.7853 N.4         1 ACR       0.2433
     19 O2B       -17.8532   -4.6507   -5.6658 O.3         1 ACR      -0.3840
     20 O3B       -18.0628   -4.4403   -8.5428 O.3         1 ACR      -0.3834
     21 O5B       -19.2644   -7.9561   -6.5858 O.3         1 ACR      -0.3401
     22 C1C       -21.4682   -5.4457   -2.0628 C.3         1 ACR       0.1884
     23 C2C       -20.5246   -6.6803   -2.2088 C.3         1 ACR       0.1341
     24 C3C       -21.0066   -7.6031   -3.3588 C.3         1 ACR       0.1144
     25 C4C       -21.2791   -6.7963   -4.6684 C.3         1 ACR       0.1184
     26 C5C       -22.2370   -5.5937   -4.4178 C.3         1 ACR       0.1134
     27 C6C       -23.7532   -5.9123   -4.3125 C.3         1 ACR       0.0730
     28 O2C       -19.1852   -6.3040   -2.4852 O.3         1 ACR      -0.3841
     29 O3C       -22.1825   -8.3177   -2.9625 O.3         1 ACR      -0.3864
     30 O4C       -20.1061   -6.1506   -5.2088 O.3         1 ACR      -0.3401
     31 O5C       -21.7486   -4.7812   -3.3231 O.3         1 ACR      -0.3405
     32 O6C       -24.4498   -4.6951   -4.0518 O.3         1 ACR      -0.3924
     33 C1D       -17.0048   -3.0993   -1.4052 C.3         1 ACR       0.1854
     34 C2D       -17.5491   -3.4040    0.0129 C.3         1 ACR       0.1339
     35 C3D       -18.8514   -4.2420   -0.0584 C.3         1 ACR       0.1144
     36 C4D       -19.8929   -3.6296   -1.0404 C.3         1 ACR       0.1184
     37 C5D       -19.2642   -3.1595   -2.4021 C.3         1 ACR       0.1134
     38 C6D       -20.2066   -2.2143   -3.2162 C.3         1 ACR       0.0730
     39 O1D       -16.5179   -4.2818   -2.0476 O.3         1 ACR      -0.3649
     40 O2D       -16.5608   -4.0910    0.7882 O.3         1 ACR      -0.3841
     41 O3D       -19.4192   -4.3472    1.2497 O.3         1 ACR      -0.3864
     42 O4D       -21.0849   -4.4562   -1.0738 O.3         1 ACR      -0.3401
     43 O5D       -18.0195   -2.4417   -2.1918 O.3         1 ACR      -0.3407
     44 O6D       -20.6776   -2.8418   -4.4126 O.3         1 ACR      -0.3924
     45 H1        -18.8986   -5.1307  -11.1521 H           1 ACR       0.0950
     46 H2        -20.2893   -5.5422  -13.1849 H           1 ACR       0.0694
     47 H3        -22.2191   -6.9794  -11.3146 H           1 ACR       0.0671
     48 H4        -20.8805   -8.3223  -13.6652 H           1 ACR       0.0769
     49 H5        -18.0014   -9.2470  -13.2404 H           1 ACR       0.0706
     50 H6        -19.3012  -10.2991  -12.6947 H           1 ACR       0.0706
     51 H7        -17.8998   -7.2074  -11.4254 H           1 ACR       0.0299
     52 H8        -20.8716   -3.7740  -12.3555 H           1 ACR       0.2103
     53 H9        -23.2236   -7.4670  -13.2815 H           1 ACR       0.2102
     54 H10       -21.5506  -10.0174  -12.6973 H           1 ACR       0.2130
     55 H11       -17.0694   -9.3934  -11.3344 H           1 ACR       0.2125
     56 H12       -18.3593   -7.2161   -4.9050 H           1 ACR       0.0938
     57 H13       -17.1469   -6.2271   -6.7721 H           1 ACR       0.0672
     58 H14       -19.7645   -4.8162   -7.5028 H           1 ACR       0.0679
     59 H15       -18.3081   -7.0184   -9.0344 H           1 ACR       0.0903
     60 H16       -20.9767   -7.3029   -7.5744 H           1 ACR       0.0652
     61 H17       -20.6326   -9.7385   -7.9061 H           1 ACR       0.0257
     62 H18       -19.1388   -9.4234   -8.8039 H           1 ACR       0.0257
     63 H19       -20.7017   -8.9065   -9.4621 H           1 ACR       0.0257
     64 H20       -20.8652   -6.8651   -9.8547 H           1 ACR       0.2029
     65 H21       -20.6131   -5.2914   -9.4977 H           1 ACR       0.2029
     66 H22       -17.5636   -3.9260   -6.2704 H           1 ACR       0.2101
     67 H23       -17.1551   -4.8149   -8.5378 H           1 ACR       0.2102
     68 H24       -22.4204   -5.8348   -1.6766 H           1 ACR       0.0938
     69 H25       -20.5181   -7.2331   -1.2668 H           1 ACR       0.0671
     70 H26       -20.2458   -8.3631   -3.5604 H           1 ACR       0.0648
     71 H27       -21.7144   -7.4593   -5.4195 H           1 ACR       0.0651
     72 H28       -22.1741   -4.9417   -5.2922 H           1 ACR       0.0647
     73 H29       -23.9726   -6.6212   -3.5138 H           1 ACR       0.0584
     74 H30       -24.1135   -6.3245   -5.2619 H           1 ACR       0.0584
     75 H31       -18.6469   -7.1230   -2.3207 H           1 ACR       0.2101
     76 H32       -22.3268   -8.9896   -3.6716 H           1 ACR       0.2100
     77 H33       -25.1928   -4.6583   -4.6889 H           1 ACR       0.2095
     78 H34       -16.1669   -2.4071   -1.3154 H           1 ACR       0.0935
     79 H35       -17.7642   -2.4539    0.5112 H           1 ACR       0.0671
     80 H36       -18.5904   -5.2530   -0.3614 H           1 ACR       0.0648
     81 H37       -20.2293   -2.7091   -0.5500 H           1 ACR       0.0651
     82 H38       -19.0343   -4.0284   -3.0147 H           1 ACR       0.0647
     83 H39       -19.6918   -1.2768   -3.4812 H           1 ACR       0.0584
     84 H40       -21.0916   -1.9454   -2.6408 H           1 ACR       0.0584
     85 H41       -16.3960   -4.0173   -2.9916 H           1 ACR       0.2126
     86 H42       -15.8211   -3.4467    0.8945 H           1 ACR       0.2101
     87 H43       -19.6059   -3.4280    1.5271 H           1 ACR       0.2100
     88 H44       -20.2771   -2.3400   -5.1734 H           1 ACR       0.2095
@<TRIPOS>BOND
     1     1     2   1
     2     1     7   1
     3    18     1   1
     4     2     3   1
     5     2     8   1
     6     3     4   1
     7     3     9   1
     8     5     4   1
     9     4    10   1
    10     5     6   1
    11     7     5   2
    12     6    11   1
    13    12    13   1
    14    12    21   1
    15    30    12   1
    16    13    14   1
    17    13    19   1
    18    14    15   1
    19    14    20   1
    20    16    15   1
    21    15    18   1
    22    16    17   1
    23    21    16   1
    24    22    23   1
    25    22    31   1
    26    42    22   1
    27    23    24   1
    28    23    28   1
    29    24    25   1
    30    24    29   1
    31    26    25   1
    32    25    30   1
    33    26    27   1
    34    31    26   1
    35    27    32   1
    36    34    33   1
    37    33    39   1
    38    33    43   1
    39    35    34   1
    40    34    40   1
    41    36    35   1
    42    35    41   1
    43    36    37   1
    44    36    42   1
    45    37    38   1
    46    37    43   1
    47    38    44   1
    48     1    45   1
    49     2    46   1
    50     3    47   1
    51     4    48   1
    52     6    49   1
    53     6    50   1
    54     7    51   1
    55     8    52   1
    56     9    53   1
    57    10    54   1
    58    11    55   1
    59    12    56   1
    60    13    57   1
    61    14    58   1
    62    15    59   1
    63    16    60   1
    64    17    61   1
    65    17    62   1
    66    17    63   1
    67    18    64   1
    68    18    65   1
    69    19    66   1
    70    20    67   1
    71    22    68   1
    72    23    69   1
    73    24    70   1
    74    25    71   1
    75    26    72   1
    76    27    73   1
    77    27    74   1
    78    28    75   1
    79    29    76   1
    80    32    77   1
    81    33    78   1
    82    34    79   1
    83    35    80   1
    84    36    81   1
    85    37    82   1
    86    38    83   1
    87    38    84   1
    88    39    85   1
    89    40    86   1
    90    41    87   1
    91    44    88   1
@<TRIPOS>SUBSTRUCTURE
     1  ACR      1

