@<TRIPOS>MOLECULE
2qmj_ligand_001
    88    91
SMALL
GAST_HUCK
****
This file was generated by PARSER (from files_GN.cpp)

@<TRIPOS>ATOM
      1 C1A       -19.5277   -6.2173  -10.3906 C.3         1 ACR       0.0141
      2 C2A       -20.6093   -5.8492  -11.4514 C.3         1 ACR       0.1303
      3 C3A       -21.5493   -7.0571  -11.7034 C.3         1 ACR       0.1215
      4 C4A       -20.7197   -8.2981  -12.1527 C.3         1 ACR       0.1112
      5 C5A       -19.4235   -8.4727  -11.4842 C.2         1 ACR      -0.0200
      6 C6A       -18.6335   -9.6760  -11.7567 C.3         1 ACR       0.0719
      7 C7A       -18.8809   -7.4906  -10.7274 C.2         1 ACR      -0.0543
      8 O2A       -21.3341   -4.6636  -11.1184 O.3         1 ACR      -0.3821
      9 O3A       -22.5107   -6.7260  -12.7078 O.3         1 ACR      -0.3843
     10 O4A       -21.5669   -9.4357  -11.9804 O.3         1 ACR      -0.3780
     11 O6A       -17.6342   -9.4135  -12.7400 O.3         1 ACR      -0.3839
     12 C1B       -18.3338   -5.8806   -5.0251 C.3         1 ACR       0.1886
     13 C2B       -17.3348   -5.8101   -6.2115 C.3         1 ACR       0.1370
     14 C3B       -18.0331   -5.5989   -7.5897 C.3         1 ACR       0.1304
     15 C4B       -19.2536   -6.5499   -7.8085 C.3         1 ACR       0.0341
     16 C5B       -20.1556   -6.5313   -6.5291 C.3         1 ACR       0.1038
     17 C6B       -21.3169   -7.5502   -6.5548 C.3         1 ACR      -0.0332
     18 N4B       -20.0951   -6.2327   -9.0100 N.4         1 ACR       0.2433
     19 O2B       -16.3505   -4.7950   -6.0226 O.3         1 ACR      -0.3840
     20 O3B       -17.0541   -5.8354   -8.6106 O.3         1 ACR      -0.3834
     21 O5B       -19.3812   -6.8277   -5.3406 O.3         1 ACR      -0.3401
     22 C1C       -21.0201   -2.9910   -1.3618 C.3         1 ACR       0.1884
     23 C2C       -20.6902   -4.5052   -1.2839 C.3         1 ACR       0.1341
     24 C3C       -19.5502   -4.8780   -2.2716 C.3         1 ACR       0.1144
     25 C4C       -19.9230   -4.4484   -3.7206 C.3         1 ACR       0.1184
     26 C5C       -20.3914   -2.9556   -3.7542 C.3         1 ACR       0.1134
     27 C6C       -21.0455   -2.6190   -5.1244 C.3         1 ACR       0.0730
     28 O2C       -20.3878   -4.9187    0.0537 O.3         1 ACR      -0.3841
     29 O3C       -19.3225   -6.2879   -2.1791 O.3         1 ACR      -0.3864
     30 O4C       -18.8310   -4.5788   -4.6611 O.3         1 ACR      -0.3401
     31 O5C       -21.3708   -2.6681   -2.7270 O.3         1 ACR      -0.3405
     32 O6C       -22.3858   -3.1154   -5.1669 O.3         1 ACR      -0.3924
     33 C1D       -18.2075   -0.4865    2.6145 C.3         1 ACR       0.1854
     34 C2D       -17.6889   -1.8463    2.0835 C.3         1 ACR       0.1339
     35 C3D       -18.1398   -2.0708    0.6212 C.3         1 ACR       0.1144
     36 C4D       -19.6780   -1.9015    0.4663 C.3         1 ACR       0.1184
     37 C5D       -20.0986   -0.4936    1.0055 C.3         1 ACR       0.1134
     38 C6D       -21.6377   -0.2890    1.0654 C.3         1 ACR       0.0730
     39 O1D       -17.4590    0.6017    2.0748 O.3         1 ACR      -0.3649
     40 O2D       -16.2632   -1.9139    2.1628 O.3         1 ACR      -0.3841
     41 O3D       -17.7250   -3.3741    0.2189 O.3         1 ACR      -0.3864
     42 O4D       -19.9866   -2.0716   -0.9370 O.3         1 ACR      -0.3401
     43 O5D       -19.6217   -0.3153    2.3664 O.3         1 ACR      -0.3407
     44 O6D       -22.2688   -0.4420   -0.2036 O.3         1 ACR      -0.3924
     45 H1        -18.7806   -5.4240  -10.4365 H           1 ACR       0.0950
     46 H2        -20.0959   -5.6280  -12.3925 H           1 ACR       0.0694
     47 H3        -22.0936   -7.2871  -10.7841 H           1 ACR       0.0671
     48 H4        -20.5156   -8.1915  -13.2263 H           1 ACR       0.0769
     49 H5        -19.2508  -10.4997  -12.1225 H           1 ACR       0.0706
     50 H6        -18.1443  -10.0325  -10.8457 H           1 ACR       0.0706
     51 H7        -17.9802   -7.6423  -10.3319 H           1 ACR       0.0299
     52 H8        -22.2089   -4.9635  -10.7958 H           1 ACR       0.2103
     53 H9        -23.0284   -7.5457  -12.8472 H           1 ACR       0.2102
     54 H10       -21.4302   -9.9917  -12.7749 H           1 ACR       0.2130
     55 H11       -18.1021   -9.4744  -13.6036 H           1 ACR       0.2125
     56 H12       -17.7915   -6.2919   -4.1752 H           1 ACR       0.0938
     57 H13       -16.8099   -6.7695   -6.2453 H           1 ACR       0.0672
     58 H14       -18.3747   -4.5578   -7.6594 H           1 ACR       0.0679
     59 H15       -18.8669   -7.5644   -7.9195 H           1 ACR       0.0903
     60 H16       -20.6019   -5.5370   -6.4257 H           1 ACR       0.0652
     61 H17       -21.8436   -7.5441   -5.5974 H           1 ACR       0.0257
     62 H18       -20.9442   -8.5586   -6.7384 H           1 ACR       0.0257
     63 H19       -22.0316   -7.2853   -7.3309 H           1 ACR       0.0257
     64 H20       -20.8407   -6.9299   -9.0254 H           1 ACR       0.2029
     65 H21       -20.5408   -5.3279   -8.8435 H           1 ACR       0.2029
     66 H22       -16.7584   -3.9444   -6.3039 H           1 ACR       0.2101
     67 H23       -16.1693   -5.7325   -8.1855 H           1 ACR       0.2102
     68 H24       -21.9158   -2.8251   -0.7631 H           1 ACR       0.0938
     69 H25       -21.5889   -5.0523   -1.5792 H           1 ACR       0.0671
     70 H26       -18.6243   -4.3770   -1.9893 H           1 ACR       0.0648
     71 H27       -20.7726   -5.0697   -4.0434 H           1 ACR       0.0651
     72 H28       -19.5306   -2.3079   -3.6188 H           1 ACR       0.0647
     73 H29       -20.4824   -3.0656   -5.9508 H           1 ACR       0.0584
     74 H30       -21.0662   -1.5378   -5.2870 H           1 ACR       0.0584
     75 H31       -20.3432   -5.9067    0.0166 H           1 ACR       0.2101
     76 H32       -20.1419   -6.7106   -2.5094 H           1 ACR       0.2100
     77 H33       -22.4687   -3.5725   -6.0353 H           1 ACR       0.2095
     78 H34       -18.0645   -0.4758    3.6977 H           1 ACR       0.0935
     79 H35       -18.1037   -2.6464    2.7046 H           1 ACR       0.0671
     80 H36       -17.6296   -1.3522   -0.0250 H           1 ACR       0.0648
     81 H37       -20.1742   -2.6551    1.0896 H           1 ACR       0.0651
     82 H38       -19.6706    0.2898    0.3706 H           1 ACR       0.0647
     83 H39       -21.8625    0.7174    1.4354 H           1 ACR       0.0584
     84 H40       -22.0740   -1.0059    1.7626 H           1 ACR       0.0584
     85 H41       -17.3600    1.2377    2.8162 H           1 ACR       0.2126
     86 H42       -16.0507   -1.9432    3.1202 H           1 ACR       0.2101
     87 H43       -18.2373   -3.9945    0.7761 H           1 ACR       0.2100
     88 H44       -23.2073   -0.6642   -0.0108 H           1 ACR       0.2095
@<TRIPOS>BOND
     1     1     2   1
     2     1     7   1
     3    18     1   1
     4     2     3   1
     5     2     8   1
     6     3     4   1
     7     3     9   1
     8     5     4   1
     9     4    10   1
    10     5     6   1
    11     7     5   2
    12     6    11   1
    13    12    13   1
    14    12    21   1
    15    30    12   1
    16    13    14   1
    17    13    19   1
    18    14    15   1
    19    14    20   1
    20    16    15   1
    21    15    18   1
    22    16    17   1
    23    21    16   1
    24    22    23   1
    25    22    31   1
    26    42    22   1
    27    23    24   1
    28    23    28   1
    29    24    25   1
    30    24    29   1
    31    26    25   1
    32    25    30   1
    33    26    27   1
    34    31    26   1
    35    27    32   1
    36    34    33   1
    37    33    39   1
    38    33    43   1
    39    35    34   1
    40    34    40   1
    41    36    35   1
    42    35    41   1
    43    36    37   1
    44    36    42   1
    45    37    38   1
    46    37    43   1
    47    38    44   1
    48     1    45   1
    49     2    46   1
    50     3    47   1
    51     4    48   1
    52     6    49   1
    53     6    50   1
    54     7    51   1
    55     8    52   1
    56     9    53   1
    57    10    54   1
    58    11    55   1
    59    12    56   1
    60    13    57   1
    61    14    58   1
    62    15    59   1
    63    16    60   1
    64    17    61   1
    65    17    62   1
    66    17    63   1
    67    18    64   1
    68    18    65   1
    69    19    66   1
    70    20    67   1
    71    22    68   1
    72    23    69   1
    73    24    70   1
    74    25    71   1
    75    26    72   1
    76    27    73   1
    77    27    74   1
    78    28    75   1
    79    29    76   1
    80    32    77   1
    81    33    78   1
    82    34    79   1
    83    35    80   1
    84    36    81   1
    85    37    82   1
    86    38    83   1
    87    38    84   1
    88    39    85   1
    89    40    86   1
    90    41    87   1
    91    44    88   1
@<TRIPOS>SUBSTRUCTURE
     1  ACR      1

