@<TRIPOS>MOLECULE
2qmj_ligand_014
    88    91
SMALL
GAST_HUCK
****
This file was generated by PARSER (from files_GN.cpp)

@<TRIPOS>ATOM
      1 C1A       -19.6823   -6.1707  -10.7391 C.3         1 ACR       0.0141
      2 C2A       -20.8181   -5.7921  -11.7342 C.3         1 ACR       0.1303
      3 C3A       -21.7919   -6.9837  -11.9182 C.3         1 ACR       0.1215
      4 C4A       -21.0308   -8.2903  -12.3152 C.3         1 ACR       0.1112
      5 C5A       -19.6687   -8.4361  -11.7764 C.2         1 ACR      -0.0200
      6 C6A       -18.9327   -9.6854  -11.9793 C.3         1 ACR       0.0719
      7 C7A       -19.0435   -7.4200  -11.1451 C.2         1 ACR      -0.0543
      8 O2A       -21.4960   -4.6105  -11.3075 O.3         1 ACR      -0.3821
      9 O3A       -22.7760   -6.6494  -12.8983 O.3         1 ACR      -0.3843
     10 O4A       -21.8296   -9.4065  -11.9151 O.3         1 ACR      -0.3780
     11 O6A       -17.7709   -9.4811  -12.7789 O.3         1 ACR      -0.3839
     12 C1B       -18.7134   -6.8339   -5.3217 C.3         1 ACR       0.1886
     13 C2B       -18.1501   -5.5976   -6.0859 C.3         1 ACR       0.1370
     14 C3B       -19.0485   -5.2939   -7.3201 C.3         1 ACR       0.1304
     15 C4B       -19.1637   -6.5367   -8.2510 C.3         1 ACR       0.0341
     16 C5B       -19.5485   -7.8003   -7.4114 C.3         1 ACR       0.1038
     17 C6B       -19.4428   -9.1173   -8.2164 C.3         1 ACR      -0.0332
     18 N4B       -20.1719   -6.2786   -9.3330 N.4         1 ACR       0.2433
     19 O2B       -17.9942   -4.4739   -5.2196 O.3         1 ACR      -0.3840
     20 O3B       -18.5458   -4.1783   -8.0502 O.3         1 ACR      -0.3834
     21 O5B       -18.6931   -7.9456   -6.2444 O.3         1 ACR      -0.3401
     22 C1C       -22.8291   -6.3549   -2.2992 C.3         1 ACR       0.1884
     23 C2C       -23.0273   -6.6602   -3.8052 C.3         1 ACR       0.1341
     24 C3C       -22.1613   -5.6872   -4.6519 C.3         1 ACR       0.1144
     25 C4C       -20.6744   -5.6477   -4.1906 C.3         1 ACR       0.1184
     26 C5C       -20.5096   -5.6112   -2.6363 C.3         1 ACR       0.1134
     27 C6C       -20.5521   -4.1723   -2.0433 C.3         1 ACR       0.0730
     28 O2C       -22.6784   -8.0180   -4.0695 O.3         1 ACR      -0.3841
     29 O3C       -22.7229   -4.3708   -4.6210 O.3         1 ACR      -0.3864
     30 O4C       -20.0598   -6.8066   -4.7851 O.3         1 ACR      -0.3401
     31 O5C       -21.4353   -6.5086   -1.9689 O.3         1 ACR      -0.3405
     32 O6C       -20.4744   -4.1991   -0.6234 O.3         1 ACR      -0.3924
     33 C1D       -27.2438   -5.6380    0.1659 C.3         1 ACR       0.1854
     34 C2D       -25.9312   -4.9280    0.5975 C.3         1 ACR       0.1339
     35 C3D       -24.7732   -5.2888   -0.3701 C.3         1 ACR       0.1144
     36 C4D       -24.6361   -6.8322   -0.5593 C.3         1 ACR       0.1184
     37 C5D       -26.0174   -7.4720   -0.9126 C.3         1 ACR       0.1134
     38 C6D       -25.9924   -9.0229   -0.9076 C.3         1 ACR       0.0730
     39 O1D       -27.8072   -5.0748   -1.0220 O.3         1 ACR      -0.3649
     40 O2D       -26.1272   -3.5143    0.6300 O.3         1 ACR      -0.3841
     41 O3D       -23.5389   -4.7356    0.0925 O.3         1 ACR      -0.3864
     42 O4D       -23.5477   -7.2509   -1.4228 O.3         1 ACR      -0.3401
     43 O5D       -27.0426   -7.0607    0.0223 O.3         1 ACR      -0.3407
     44 O6D       -25.5712   -9.5537    0.3479 O.3         1 ACR      -0.3924
     45 H1        -18.9420   -5.3649  -10.7793 H           1 ACR       0.0950
     46 H2        -20.3704   -5.5558  -12.7037 H           1 ACR       0.0694
     47 H3        -22.3175   -7.1467  -10.9723 H           1 ACR       0.0671
     48 H4        -20.9434   -8.3245  -13.4051 H           1 ACR       0.0769
     49 H5        -19.5376  -10.4517  -12.4666 H           1 ACR       0.0706
     50 H6        -18.6199  -10.0861  -11.0125 H           1 ACR       0.0706
     51 H7        -18.0959   -7.5401  -10.8601 H           1 ACR       0.0299
     52 H8        -22.3285   -4.9234  -10.9000 H           1 ACR       0.2103
     53 H9        -23.2901   -7.4710  -13.0474 H           1 ACR       0.2102
     54 H10       -22.6468   -9.3485  -12.4547 H           1 ACR       0.2130
     55 H11       -18.1063   -9.4840  -13.6983 H           1 ACR       0.2125
     56 H12       -18.0314   -7.0744   -4.5039 H           1 ACR       0.0938
     57 H13       -17.1477   -5.8530   -6.4424 H           1 ACR       0.0672
     58 H14       -20.0512   -5.0224   -6.9879 H           1 ACR       0.0679
     59 H15       -18.1641   -6.7078   -8.6673 H           1 ACR       0.0903
     60 H16       -20.5896   -7.7102   -7.0887 H           1 ACR       0.0652
     61 H17       -19.6519   -9.9702   -7.5687 H           1 ACR       0.0257
     62 H18       -18.4372   -9.2312   -8.6280 H           1 ACR       0.0257
     63 H19       -20.1670   -9.1275   -9.0323 H           1 ACR       0.0257
     64 H20       -20.8654   -7.0289   -9.3034 H           1 ACR       0.2029
     65 H21       -20.6698   -5.4136   -9.0969 H           1 ACR       0.2029
     66 H22       -17.5251   -3.8025   -5.7545 H           1 ACR       0.2101
     67 H23       -18.4011   -3.4675   -7.3945 H           1 ACR       0.2102
     68 H24       -23.1105   -5.3226   -2.1068 H           1 ACR       0.0938
     69 H25       -24.0726   -6.5221   -4.0867 H           1 ACR       0.0671
     70 H26       -22.2094   -6.0061   -5.7015 H           1 ACR       0.0648
     71 H27       -20.2400   -4.7479   -4.6148 H           1 ACR       0.0651
     72 H28       -19.5112   -5.9955   -2.4031 H           1 ACR       0.0647
     73 H29       -21.4633   -3.6506   -2.3326 H           1 ACR       0.0584
     74 H30       -19.7033   -3.6019   -2.4179 H           1 ACR       0.0584
     75 H31       -22.9922   -8.2011   -4.9811 H           1 ACR       0.2101
     76 H32       -22.5412   -4.0115   -5.5219 H           1 ACR       0.2100
     77 H33       -21.3342   -4.5626   -0.3258 H           1 ACR       0.2095
     78 H34       -27.9782   -5.4945    0.9565 H           1 ACR       0.0935
     79 H35       -25.6682   -5.2596    1.6049 H           1 ACR       0.0671
     80 H36       -25.0028   -4.8172   -1.3265 H           1 ACR       0.0648
     81 H37       -24.3601   -7.2239    0.4233 H           1 ACR       0.0651
     82 H38       -26.3116   -7.1493   -1.9119 H           1 ACR       0.0647
     83 H39       -25.3340   -9.4041   -1.6866 H           1 ACR       0.0584
     84 H40       -26.9989   -9.4000   -1.1037 H           1 ACR       0.0584
     85 H41       -27.5048   -5.6430   -1.7609 H           1 ACR       0.2126
     86 H42       -26.3847   -3.2816   -0.2914 H           1 ACR       0.2101
     87 H43       -23.4184   -5.0804    1.0011 H           1 ACR       0.2100
     88 H44       -24.5955   -9.4764    0.3531 H           1 ACR       0.2095
@<TRIPOS>BOND
     1     1     2   1
     2     1     7   1
     3    18     1   1
     4     2     3   1
     5     2     8   1
     6     3     4   1
     7     3     9   1
     8     5     4   1
     9     4    10   1
    10     5     6   1
    11     7     5   2
    12     6    11   1
    13    12    13   1
    14    12    21   1
    15    30    12   1
    16    13    14   1
    17    13    19   1
    18    14    15   1
    19    14    20   1
    20    16    15   1
    21    15    18   1
    22    16    17   1
    23    21    16   1
    24    22    23   1
    25    22    31   1
    26    42    22   1
    27    23    24   1
    28    23    28   1
    29    24    25   1
    30    24    29   1
    31    26    25   1
    32    25    30   1
    33    26    27   1
    34    31    26   1
    35    27    32   1
    36    34    33   1
    37    33    39   1
    38    33    43   1
    39    35    34   1
    40    34    40   1
    41    36    35   1
    42    35    41   1
    43    36    37   1
    44    36    42   1
    45    37    38   1
    46    37    43   1
    47    38    44   1
    48     1    45   1
    49     2    46   1
    50     3    47   1
    51     4    48   1
    52     6    49   1
    53     6    50   1
    54     7    51   1
    55     8    52   1
    56     9    53   1
    57    10    54   1
    58    11    55   1
    59    12    56   1
    60    13    57   1
    61    14    58   1
    62    15    59   1
    63    16    60   1
    64    17    61   1
    65    17    62   1
    66    17    63   1
    67    18    64   1
    68    18    65   1
    69    19    66   1
    70    20    67   1
    71    22    68   1
    72    23    69   1
    73    24    70   1
    74    25    71   1
    75    26    72   1
    76    27    73   1
    77    27    74   1
    78    28    75   1
    79    29    76   1
    80    32    77   1
    81    33    78   1
    82    34    79   1
    83    35    80   1
    84    36    81   1
    85    37    82   1
    86    38    83   1
    87    38    84   1
    88    39    85   1
    89    40    86   1
    90    41    87   1
    91    44    88   1
@<TRIPOS>SUBSTRUCTURE
     1  ACR      1

