@<TRIPOS>MOLECULE
2qmj_ligand_063
    88    91
SMALL
GAST_HUCK
****
This file was generated by PARSER (from files_GN.cpp)

@<TRIPOS>ATOM
      1 C1A       -19.6484   -6.1396  -10.7712 C.3         1 ACR       0.0141
      2 C2A       -20.8173   -5.7456  -11.7221 C.3         1 ACR       0.1303
      3 C3A       -21.8020   -6.9359  -11.8908 C.3         1 ACR       0.1215
      4 C4A       -21.0554   -8.2399  -12.3179 C.3         1 ACR       0.1112
      5 C5A       -19.6759   -8.3899  -11.8286 C.2         1 ACR      -0.0200
      6 C6A       -18.9487   -9.6370  -12.0860 C.3         1 ACR       0.0719
      7 C7A       -19.0253   -7.3822  -11.2080 C.2         1 ACR      -0.0543
      8 O2A       -21.4798   -4.5646  -11.2557 O.3         1 ACR      -0.3821
      9 O3A       -22.8043   -6.5810  -12.8476 O.3         1 ACR      -0.3843
     10 O4A       -21.8422   -9.3555  -11.9000 O.3         1 ACR      -0.3780
     11 O6A       -17.7512   -9.3966  -12.8209 O.3         1 ACR      -0.3839
     12 C1B       -18.2031   -6.3952   -5.4661 C.3         1 ACR       0.1886
     13 C2B       -17.3970   -5.7193   -6.6045 C.3         1 ACR       0.1370
     14 C3B       -18.3693   -5.3289   -7.7489 C.3         1 ACR       0.1304
     15 C4B       -19.1064   -6.5977   -8.2909 C.3         1 ACR       0.0341
     16 C5B       -19.7993   -7.3269   -7.0895 C.3         1 ACR       0.1038
     17 C6B       -20.3897   -8.7116   -7.4600 C.3         1 ACR      -0.0332
     18 N4B       -20.1037   -6.2541   -9.3530 N.4         1 ACR       0.2433
     19 O2B       -16.6371   -4.6087   -6.1394 O.3         1 ACR      -0.3840
     20 O3B       -17.6443   -4.6699   -8.7756 O.3         1 ACR      -0.3834
     21 O5B       -18.8601   -7.5622   -6.0058 O.3         1 ACR      -0.3401
     22 C1C       -19.7291   -3.9120   -1.6684 C.3         1 ACR       0.1884
     23 C2C       -20.8565   -4.3370   -2.6522 C.3         1 ACR       0.1341
     24 C3C       -20.5663   -3.7786   -4.0843 C.3         1 ACR       0.1144
     25 C4C       -19.1346   -4.1907   -4.5664 C.3         1 ACR       0.1184
     26 C5C       -18.0544   -3.8014   -3.4950 C.3         1 ACR       0.1134
     27 C6C       -17.6342   -2.3021   -3.4957 C.3         1 ACR       0.0730
     28 O2C       -20.9561   -5.7568   -2.7324 O.3         1 ACR      -0.3841
     29 O3C       -20.7513   -2.3570   -4.1296 O.3         1 ACR      -0.3864
     30 O4C       -19.2274   -5.6136   -4.8249 O.3         1 ACR      -0.3401
     31 O5C       -18.4289   -4.2712   -2.1750 O.3         1 ACR      -0.3405
     32 O6C       -16.8655   -2.0066   -2.3348 O.3         1 ACR      -0.3924
     33 C1D       -20.1228   -8.5904    0.2336 C.3         1 ACR       0.1854
     34 C2D       -21.0917   -7.7202    1.0760 C.3         1 ACR       0.1339
     35 C3D       -21.1806   -6.2872    0.4898 C.3         1 ACR       0.1144
     36 C4D       -19.7728   -5.6506    0.2928 C.3         1 ACR       0.1184
     37 C5D       -18.7532   -6.6428   -0.3651 C.3         1 ACR       0.1134
     38 C6D       -17.2715   -6.1994   -0.1827 C.3         1 ACR       0.0730
     39 O1D       -20.6059   -8.8370   -1.0868 O.3         1 ACR      -0.3649
     40 O2D       -22.3875   -8.3158    1.1460 O.3         1 ACR      -0.3841
     41 O3D       -21.9630   -5.4722    1.3655 O.3         1 ACR      -0.3864
     42 O4D       -19.8700   -4.3271   -0.2908 O.3         1 ACR      -0.3401
     43 O5D       -18.8216   -7.9777    0.1902 O.3         1 ACR      -0.3407
     44 O6D       -16.7067   -6.6469    1.0547 O.3         1 ACR      -0.3924
     45 H1        -18.9135   -5.3413  -10.8578 H           1 ACR       0.0950
     46 H2        -20.4072   -5.5005  -12.7081 H           1 ACR       0.0694
     47 H3        -22.3079   -7.0966  -10.9327 H           1 ACR       0.0671
     48 H4        -21.0052   -8.2654  -13.4107 H           1 ACR       0.0769
     49 H5        -19.5428  -10.3608  -12.6516 H           1 ACR       0.0706
     50 H6        -18.6829  -10.1079  -11.1358 H           1 ACR       0.0706
     51 H7        -18.0677   -7.5080  -10.9716 H           1 ACR       0.0299
     52 H8        -22.3078   -4.8725  -10.8436 H           1 ACR       0.2103
     53 H9        -23.3249   -7.3979  -12.9960 H           1 ACR       0.2102
     54 H10       -22.6437   -9.3416  -12.4636 H           1 ACR       0.2130
     55 H11       -18.0226   -9.4562  -13.7600 H           1 ACR       0.2125
     56 H12       -17.5108   -6.7520   -4.7018 H           1 ACR       0.0938
     57 H13       -16.6760   -6.4517   -6.9867 H           1 ACR       0.0672
     58 H14       -19.1035   -4.6067   -7.3683 H           1 ACR       0.0679
     59 H15       -18.3572   -7.2922   -8.6873 H           1 ACR       0.0903
     60 H16       -20.6258   -6.7103   -6.7197 H           1 ACR       0.0652
     61 H17       -20.8525   -9.1658   -6.5816 H           1 ACR       0.0257
     62 H18       -19.6018   -9.3771   -7.8208 H           1 ACR       0.0257
     63 H19       -21.1540   -8.6226   -8.2314 H           1 ACR       0.0257
     64 H20       -20.8256   -6.9728   -9.3464 H           1 ACR       0.2029
     65 H21       -20.5513   -5.3778   -9.0719 H           1 ACR       0.2029
     66 H22       -15.9631   -4.4625   -6.8441 H           1 ACR       0.2101
     67 H23       -16.8866   -5.2611   -8.9815 H           1 ACR       0.2102
     68 H24       -19.7657   -2.8197   -1.6002 H           1 ACR       0.0938
     69 H25       -21.8112   -3.9438   -2.2905 H           1 ACR       0.0671
     70 H26       -21.3090   -4.1953   -4.7796 H           1 ACR       0.0648
     71 H27       -18.9193   -3.6942   -5.5215 H           1 ACR       0.0651
     72 H28       -17.1430   -4.3541   -3.7404 H           1 ACR       0.0647
     73 H29       -18.5016   -1.6458   -3.5144 H           1 ACR       0.0584
     74 H30       -17.0194   -2.0921   -4.3711 H           1 ACR       0.0584
     75 H31       -21.8117   -5.9300   -3.1838 H           1 ACR       0.2101
     76 H32       -20.3963   -2.0886   -5.0070 H           1 ACR       0.2100
     77 H33       -17.4950   -2.0595   -1.5844 H           1 ACR       0.2095
     78 H34       -20.0014   -9.5582    0.7275 H           1 ACR       0.0935
     79 H35       -20.7048   -7.6650    2.0996 H           1 ACR       0.0671
     80 H36       -21.7088   -6.3487   -0.4532 H           1 ACR       0.0648
     81 H37       -19.4009   -5.4709    1.3015 H           1 ACR       0.0651
     82 H38       -18.9614   -6.7164   -1.4374 H           1 ACR       0.0647
     83 H39       -17.1663   -5.1085   -0.2138 H           1 ACR       0.0584
     84 H40       -16.6616   -6.6185   -0.9975 H           1 ACR       0.0584
     85 H41       -21.2805   -9.5429   -0.9947 H           1 ACR       0.2126
     86 H42       -22.7315   -8.3068    0.2306 H           1 ACR       0.2101
     87 H43       -22.1479   -4.6504    0.8551 H           1 ACR       0.2100
     88 H44       -17.2020   -6.1689    1.7586 H           1 ACR       0.2095
@<TRIPOS>BOND
     1     1     2   1
     2     1     7   1
     3    18     1   1
     4     2     3   1
     5     2     8   1
     6     3     4   1
     7     3     9   1
     8     5     4   1
     9     4    10   1
    10     5     6   1
    11     7     5   2
    12     6    11   1
    13    12    13   1
    14    12    21   1
    15    30    12   1
    16    13    14   1
    17    13    19   1
    18    14    15   1
    19    14    20   1
    20    16    15   1
    21    15    18   1
    22    16    17   1
    23    21    16   1
    24    22    23   1
    25    22    31   1
    26    42    22   1
    27    23    24   1
    28    23    28   1
    29    24    25   1
    30    24    29   1
    31    26    25   1
    32    25    30   1
    33    26    27   1
    34    31    26   1
    35    27    32   1
    36    34    33   1
    37    33    39   1
    38    33    43   1
    39    35    34   1
    40    34    40   1
    41    36    35   1
    42    35    41   1
    43    36    37   1
    44    36    42   1
    45    37    38   1
    46    37    43   1
    47    38    44   1
    48     1    45   1
    49     2    46   1
    50     3    47   1
    51     4    48   1
    52     6    49   1
    53     6    50   1
    54     7    51   1
    55     8    52   1
    56     9    53   1
    57    10    54   1
    58    11    55   1
    59    12    56   1
    60    13    57   1
    61    14    58   1
    62    15    59   1
    63    16    60   1
    64    17    61   1
    65    17    62   1
    66    17    63   1
    67    18    64   1
    68    18    65   1
    69    19    66   1
    70    20    67   1
    71    22    68   1
    72    23    69   1
    73    24    70   1
    74    25    71   1
    75    26    72   1
    76    27    73   1
    77    27    74   1
    78    28    75   1
    79    29    76   1
    80    32    77   1
    81    33    78   1
    82    34    79   1
    83    35    80   1
    84    36    81   1
    85    37    82   1
    86    38    83   1
    87    38    84   1
    88    39    85   1
    89    40    86   1
    90    41    87   1
    91    44    88   1
@<TRIPOS>SUBSTRUCTURE
     1  ACR      1

