@<TRIPOS>MOLECULE
2qmj_ligand_024
    88    91
SMALL
GAST_HUCK
****
This file was generated by PARSER (from files_GN.cpp)

@<TRIPOS>ATOM
      1 C1A       -19.6428   -6.1646  -10.7396 C.3         1 ACR       0.0141
      2 C2A       -20.7969   -5.7534  -11.7015 C.3         1 ACR       0.1303
      3 C3A       -21.7910   -6.9337  -11.8786 C.3         1 ACR       0.1215
      4 C4A       -21.0438   -8.2263  -12.3359 C.3         1 ACR       0.1112
      5 C5A       -19.6478   -8.3812  -11.8873 C.2         1 ACR      -0.0200
      6 C6A       -18.8793   -9.5426  -12.3313 C.3         1 ACR       0.0719
      7 C7A       -19.0122   -7.3947  -11.2195 C.2         1 ACR      -0.0543
      8 O2A       -21.4350   -4.5607  -11.2577 O.3         1 ACR      -0.3821
      9 O3A       -22.7974   -6.5789  -12.8282 O.3         1 ACR      -0.3843
     10 O4A       -21.8108   -9.3646  -11.9268 O.3         1 ACR      -0.3780
     11 O6A       -18.0637  -10.0557  -11.2813 O.3         1 ACR      -0.3839
     12 C1B       -17.6748   -6.9314   -5.6804 C.3         1 ACR       0.1886
     13 C2B       -17.6236   -5.5495   -6.3950 C.3         1 ACR       0.1370
     14 C3B       -18.8578   -5.3288   -7.3177 C.3         1 ACR       0.1304
     15 C4B       -19.0107   -6.5407   -8.2815 C.3         1 ACR       0.0341
     16 C5B       -19.2279   -7.8159   -7.4047 C.3         1 ACR       0.1038
     17 C6B       -19.3879   -9.1205   -8.2250 C.3         1 ACR      -0.0332
     18 N4B       -20.0820   -6.3026   -9.3118 N.4         1 ACR       0.2433
     19 O2B       -17.5193   -4.5119   -5.4162 O.3         1 ACR      -0.3840
     20 O3B       -18.7061   -4.1301   -8.0723 O.3         1 ACR      -0.3834
     21 O5B       -18.0776   -8.0180   -6.5512 O.3         1 ACR      -0.3401
     22 C1C       -20.5539   -7.7665   -1.6893 C.3         1 ACR       0.1884
     23 C2C       -20.0382   -6.3124   -1.9025 C.3         1 ACR       0.1341
     24 C3C       -18.4968   -6.2912   -2.1474 C.3         1 ACR       0.1144
     25 C4C       -18.0651   -7.3219   -3.2316 C.3         1 ACR       0.1184
     26 C5C       -18.6758   -8.7315   -2.9731 C.3         1 ACR       0.1134
     27 C6C       -17.9503   -9.5550   -1.8716 C.3         1 ACR       0.0730
     28 O2C       -20.6909   -5.6936   -3.0149 O.3         1 ACR      -0.3841
     29 O3C       -17.8031   -6.5125   -0.9169 O.3         1 ACR      -0.3864
     30 O4C       -18.5298   -6.8317   -4.5158 O.3         1 ACR      -0.3401
     31 O5C       -20.0991   -8.6218   -2.7554 O.3         1 ACR      -0.3405
     32 O6C       -18.5624  -10.8311   -1.7225 O.3         1 ACR      -0.3924
     33 C1D       -24.0581   -9.2501   -4.9560 C.3         1 ACR       0.1854
     34 C2D       -24.1514   -7.7336   -4.6446 C.3         1 ACR       0.1339
     35 C3D       -23.0341   -7.3125   -3.6542 C.3         1 ACR       0.1144
     36 C4D       -22.9984   -8.2262   -2.3977 C.3         1 ACR       0.1184
     37 C5D       -23.0129   -9.7490   -2.7878 C.3         1 ACR       0.1134
     38 C6D       -23.2404  -10.6867   -1.5775 C.3         1 ACR       0.0730
     39 O1D       -22.9087   -9.5509   -5.7477 O.3         1 ACR      -0.3649
     40 O2D       -24.0817   -6.9589   -5.8405 O.3         1 ACR      -0.3841
     41 O3D       -23.2570   -5.9514   -3.2674 O.3         1 ACR      -0.3864
     42 O4D       -21.9791   -7.8034   -1.4523 O.3         1 ACR      -0.3401
     43 O5D       -24.0685  -10.0203   -3.7366 O.3         1 ACR      -0.3407
     44 O6D       -22.7225  -10.1555   -0.3581 O.3         1 ACR      -0.3924
     45 H1        -18.9018   -5.3579  -10.7880 H           1 ACR       0.0950
     46 H2        -20.3706   -5.5174  -12.6806 H           1 ACR       0.0694
     47 H3        -22.2904   -7.1153  -10.9230 H           1 ACR       0.0671
     48 H4        -21.0166   -8.2331  -13.4310 H           1 ACR       0.0769
     49 H5        -18.2467   -9.2430  -13.1696 H           1 ACR       0.0706
     50 H6        -19.5351  -10.3544  -12.6650 H           1 ACR       0.0706
     51 H7        -18.0419   -7.4965  -11.0311 H           1 ACR       0.0299
     52 H8        -22.2616   -4.8499  -10.8288 H           1 ACR       0.2103
     53 H9        -23.2902   -7.4091  -13.0041 H           1 ACR       0.2102
     54 H10       -22.6091   -9.3637  -12.4973 H           1 ACR       0.2130
     55 H11       -17.3159  -10.4909  -11.7454 H           1 ACR       0.2125
     56 H12       -16.6502   -7.1552   -5.3785 H           1 ACR       0.0938
     57 H13       -16.7198   -5.5170   -7.0116 H           1 ACR       0.0672
     58 H14       -19.7615   -5.2264   -6.7059 H           1 ACR       0.0679
     59 H15       -18.0478   -6.6682   -8.7887 H           1 ACR       0.0903
     60 H16       -20.1230   -7.6978   -6.7877 H           1 ACR       0.0652
     61 H17       -19.5441   -9.9649   -7.5488 H           1 ACR       0.0257
     62 H18       -18.4906   -9.3136   -8.8179 H           1 ACR       0.0257
     63 H19       -20.2481   -9.0645   -8.8957 H           1 ACR       0.0257
     64 H20       -20.7614   -7.0657   -9.2604 H           1 ACR       0.2029
     65 H21       -20.5853   -5.4480   -9.0446 H           1 ACR       0.2029
     66 H22       -17.1992   -3.7293   -5.9065 H           1 ACR       0.2101
     67 H23       -18.4837   -3.4304   -7.4258 H           1 ACR       0.2102
     68 H24       -20.1334   -8.1333   -0.7541 H           1 ACR       0.0938
     69 H25       -20.2658   -5.7119   -1.0046 H           1 ACR       0.0671
     70 H26       -18.2037   -5.2911   -2.4849 H           1 ACR       0.0648
     71 H27       -16.9757   -7.3828   -3.2104 H           1 ACR       0.0651
     72 H28       -18.5592   -9.3088   -3.8953 H           1 ACR       0.0647
     73 H29       -17.9779   -9.0502   -0.9063 H           1 ACR       0.0584
     74 H30       -16.9039   -9.7014   -2.1478 H           1 ACR       0.0584
     75 H31       -20.4983   -4.7385   -2.9159 H           1 ACR       0.2101
     76 H32       -16.8626   -6.3232   -1.1095 H           1 ACR       0.2100
     77 H33       -18.0296  -11.2872   -1.0353 H           1 ACR       0.2095
     78 H34       -24.9381   -9.5344   -5.5412 H           1 ACR       0.0935
     79 H35       -25.1268   -7.5363   -4.1864 H           1 ACR       0.0671
     80 H36       -22.0710   -7.3677   -4.1715 H           1 ACR       0.0648
     81 H37       -23.9432   -8.0459   -1.8720 H           1 ACR       0.0651
     82 H38       -22.0736  -10.0346   -3.2520 H           1 ACR       0.0647
     83 H39       -22.7308  -11.6394   -1.7644 H           1 ACR       0.0584
     84 H40       -24.3109  -10.8933   -1.4541 H           1 ACR       0.0584
     85 H41       -22.8169  -10.5257   -5.6893 H           1 ACR       0.2126
     86 H42       -23.1569   -7.0469   -6.1533 H           1 ACR       0.2101
     87 H43       -24.1146   -5.9585   -2.7953 H           1 ACR       0.2100
     88 H44       -22.9436  -10.8255    0.3110 H           1 ACR       0.2095
@<TRIPOS>BOND
     1     1     2   1
     2     1     7   1
     3    18     1   1
     4     2     3   1
     5     2     8   1
     6     3     4   1
     7     3     9   1
     8     5     4   1
     9     4    10   1
    10     5     6   1
    11     7     5   2
    12     6    11   1
    13    12    13   1
    14    12    21   1
    15    30    12   1
    16    13    14   1
    17    13    19   1
    18    14    15   1
    19    14    20   1
    20    16    15   1
    21    15    18   1
    22    16    17   1
    23    21    16   1
    24    22    23   1
    25    22    31   1
    26    42    22   1
    27    23    24   1
    28    23    28   1
    29    24    25   1
    30    24    29   1
    31    26    25   1
    32    25    30   1
    33    26    27   1
    34    31    26   1
    35    27    32   1
    36    34    33   1
    37    33    39   1
    38    33    43   1
    39    35    34   1
    40    34    40   1
    41    36    35   1
    42    35    41   1
    43    36    37   1
    44    36    42   1
    45    37    38   1
    46    37    43   1
    47    38    44   1
    48     1    45   1
    49     2    46   1
    50     3    47   1
    51     4    48   1
    52     6    49   1
    53     6    50   1
    54     7    51   1
    55     8    52   1
    56     9    53   1
    57    10    54   1
    58    11    55   1
    59    12    56   1
    60    13    57   1
    61    14    58   1
    62    15    59   1
    63    16    60   1
    64    17    61   1
    65    17    62   1
    66    17    63   1
    67    18    64   1
    68    18    65   1
    69    19    66   1
    70    20    67   1
    71    22    68   1
    72    23    69   1
    73    24    70   1
    74    25    71   1
    75    26    72   1
    76    27    73   1
    77    27    74   1
    78    28    75   1
    79    29    76   1
    80    32    77   1
    81    33    78   1
    82    34    79   1
    83    35    80   1
    84    36    81   1
    85    37    82   1
    86    38    83   1
    87    38    84   1
    88    39    85   1
    89    40    86   1
    90    41    87   1
    91    44    88   1
@<TRIPOS>SUBSTRUCTURE
     1  ACR      1

