@<TRIPOS>MOLECULE
2qmj_ligand_003
    88    91
SMALL
GAST_HUCK
****
This file was generated by PARSER (from files_GN.cpp)

@<TRIPOS>ATOM
      1 C1A       -19.5947   -6.1917  -10.7143 C.3         1 ACR       0.0141
      2 C2A       -20.7433   -5.8451  -11.7088 C.3         1 ACR       0.1303
      3 C3A       -21.7014   -7.0586  -11.8555 C.3         1 ACR       0.1215
      4 C4A       -20.9235   -8.3735  -12.2023 C.3         1 ACR       0.1112
      5 C5A       -19.5171   -8.4426  -11.7740 C.2         1 ACR      -0.0200
      6 C6A       -18.7358   -9.6507  -12.0632 C.3         1 ACR       0.0719
      7 C7A       -18.9125   -7.4056  -11.1592 C.2         1 ACR      -0.0543
      8 O2A       -21.4266   -4.6607  -11.3067 O.3         1 ACR      -0.3821
      9 O3A       -22.6820   -6.7713  -12.8539 O.3         1 ACR      -0.3843
     10 O4A       -21.6409   -9.4809  -11.6506 O.3         1 ACR      -0.3780
     11 O6A       -17.6101   -9.3588  -12.8870 O.3         1 ACR      -0.3839
     12 C1B       -18.5036   -6.7599   -5.2988 C.3         1 ACR       0.1886
     13 C2B       -17.9584   -5.5985   -6.1771 C.3         1 ACR       0.1370
     14 C3B       -18.9470   -5.2984   -7.3349 C.3         1 ACR       0.1304
     15 C4B       -19.1191   -6.5724   -8.2171 C.3         1 ACR       0.0341
     16 C5B       -19.5606   -7.7894   -7.3317 C.3         1 ACR       0.1038
     17 C6B       -19.4116   -9.1464   -8.0724 C.3         1 ACR      -0.0332
     18 N4B       -20.1063   -6.3423   -9.3176 N.4         1 ACR       0.2433
     19 O2B       -17.6753   -4.4557   -5.3747 O.3         1 ACR      -0.3840
     20 O3B       -18.4977   -4.2051   -8.1326 O.3         1 ACR      -0.3834
     21 O5B       -18.8017   -7.9230   -6.1037 O.3         1 ACR      -0.3401
     22 C1C       -23.6522   -6.3879   -3.3356 C.3         1 ACR       0.1884
     23 C2C       -23.0529   -7.6420   -4.0259 C.3         1 ACR       0.1341
     24 C3C       -21.5089   -7.6707   -3.8967 C.3         1 ACR       0.1144
     25 C4C       -20.8984   -6.3474   -4.4569 C.3         1 ACR       0.1184
     26 C5C       -21.5261   -5.1504   -3.6712 C.3         1 ACR       0.1134
     27 C6C       -21.1416   -3.7657   -4.2493 C.3         1 ACR       0.0730
     28 O2C       -23.6359   -8.8282   -3.4868 O.3         1 ACR      -0.3841
     29 O3C       -21.0234   -8.8272   -4.5743 O.3         1 ACR      -0.3864
     30 O4C       -19.4644   -6.3375   -4.2932 O.3         1 ACR      -0.3401
     31 O5C       -22.9730   -5.1759   -3.7144 O.3         1 ACR      -0.3405
     32 O6C       -19.7483   -3.6617   -4.5087 O.3         1 ACR      -0.3924
     33 C1D       -26.3449   -6.3832    1.2762 C.3         1 ACR       0.1854
     34 C2D       -26.9998   -6.0096   -0.0702 C.3         1 ACR       0.1339
     35 C3D       -26.0526   -6.3562   -1.2520 C.3         1 ACR       0.1144
     36 C4D       -24.5908   -5.8208   -1.0653 C.3         1 ACR       0.1184
     37 C5D       -24.0920   -5.9764    0.4143 C.3         1 ACR       0.1134
     38 C6D       -22.9119   -5.0392    0.7902 C.3         1 ACR       0.0730
     39 O1D       -26.1652   -7.7950    1.4196 O.3         1 ACR      -0.3649
     40 O2D       -28.2490   -6.6924   -0.1958 O.3         1 ACR      -0.3841
     41 O3D       -26.6183   -5.7991   -2.4394 O.3         1 ACR      -0.3864
     42 O4D       -23.6528   -6.5550   -1.8964 O.3         1 ACR      -0.3401
     43 O5D       -25.1017   -5.6815    1.4044 O.3         1 ACR      -0.3407
     44 O6D       -22.0947   -4.6756   -0.3154 O.3         1 ACR      -0.3924
     45 H1        -18.8831   -5.3607  -10.7385 H           1 ACR       0.0950
     46 H2        -20.3056   -5.6323  -12.6899 H           1 ACR       0.0694
     47 H3        -22.2366   -7.1867  -10.9094 H           1 ACR       0.0671
     48 H4        -20.9302   -8.4942  -13.2909 H           1 ACR       0.0769
     49 H5        -19.3307  -10.4129  -12.5739 H           1 ACR       0.0706
     50 H6        -18.3794  -10.0883  -11.1282 H           1 ACR       0.0706
     51 H7        -17.9412   -7.4779  -10.9387 H           1 ACR       0.0299
     52 H8        -22.2610   -4.9613  -10.8956 H           1 ACR       0.2103
     53 H9        -23.2188   -7.5875  -12.9321 H           1 ACR       0.2102
     54 H10       -21.1650   -9.7022  -10.8219 H           1 ACR       0.2130
     55 H11       -17.9534   -9.4151  -13.8028 H           1 ACR       0.2125
     56 H12       -17.6582   -7.0841   -4.6893 H           1 ACR       0.0938
     57 H13       -17.0037   -5.9131   -6.6160 H           1 ACR       0.0672
     58 H14       -19.9132   -5.0057   -6.9220 H           1 ACR       0.0679
     59 H15       -18.1305   -6.8106   -8.6278 H           1 ACR       0.0903
     60 H16       -20.6146   -7.6803   -7.0864 H           1 ACR       0.0652
     61 H17       -19.6685   -9.9674   -7.4001 H           1 ACR       0.0257
     62 H18       -18.3801   -9.2838   -8.4057 H           1 ACR       0.0257
     63 H19       -20.0722   -9.1995   -8.9397 H           1 ACR       0.0257
     64 H20       -20.7540   -7.1292   -9.3199 H           1 ACR       0.2029
     65 H21       -20.6539   -5.5116   -9.0740 H           1 ACR       0.2029
     66 H22       -17.3327   -3.7780   -5.9937 H           1 ACR       0.2101
     67 H23       -18.2976   -3.4752   -7.5068 H           1 ACR       0.2102
     68 H24       -24.6661   -6.2862   -3.7184 H           1 ACR       0.0938
     69 H25       -23.3122   -7.6085   -5.0891 H           1 ACR       0.0671
     70 H26       -21.2422   -7.7764   -2.8363 H           1 ACR       0.0648
     71 H27       -21.1809   -6.2320   -5.5047 H           1 ACR       0.0651
     72 H28       -21.1954   -5.1927   -2.6283 H           1 ACR       0.0647
     73 H29       -21.4038   -2.9814   -3.5341 H           1 ACR       0.0584
     74 H30       -21.6996   -3.5801   -5.1715 H           1 ACR       0.0584
     75 H31       -23.3787   -8.8432   -2.5399 H           1 ACR       0.2101
     76 H32       -20.0639   -8.8546   -4.3755 H           1 ACR       0.2100
     77 H33       -19.6860   -3.0467   -5.2745 H           1 ACR       0.2095
     78 H34       -26.9934   -6.0499    2.0898 H           1 ACR       0.0935
     79 H35       -27.2017   -4.9333   -0.0723 H           1 ACR       0.0671
     80 H36       -26.0182   -7.4459   -1.3659 H           1 ACR       0.0648
     81 H37       -24.5771   -4.7576   -1.3186 H           1 ACR       0.0651
     82 H38       -23.7564   -7.0106    0.5630 H           1 ACR       0.0647
     83 H39       -22.2763   -5.5466    1.5189 H           1 ACR       0.0584
     84 H40       -23.2874   -4.1231    1.2516 H           1 ACR       0.0584
     85 H41       -25.5301   -7.8928    2.1623 H           1 ACR       0.2126
     86 H42       -28.6307   -6.3757   -1.0420 H           1 ACR       0.2101
     87 H43       -27.5017   -6.2080   -2.5510 H           1 ACR       0.2100
     88 H44       -22.6306   -4.0069   -0.7969 H           1 ACR       0.2095
@<TRIPOS>BOND
     1     1     2   1
     2     1     7   1
     3    18     1   1
     4     2     3   1
     5     2     8   1
     6     3     4   1
     7     3     9   1
     8     5     4   1
     9     4    10   1
    10     5     6   1
    11     7     5   2
    12     6    11   1
    13    12    13   1
    14    12    21   1
    15    30    12   1
    16    13    14   1
    17    13    19   1
    18    14    15   1
    19    14    20   1
    20    16    15   1
    21    15    18   1
    22    16    17   1
    23    21    16   1
    24    22    23   1
    25    22    31   1
    26    42    22   1
    27    23    24   1
    28    23    28   1
    29    24    25   1
    30    24    29   1
    31    26    25   1
    32    25    30   1
    33    26    27   1
    34    31    26   1
    35    27    32   1
    36    34    33   1
    37    33    39   1
    38    33    43   1
    39    35    34   1
    40    34    40   1
    41    36    35   1
    42    35    41   1
    43    36    37   1
    44    36    42   1
    45    37    38   1
    46    37    43   1
    47    38    44   1
    48     1    45   1
    49     2    46   1
    50     3    47   1
    51     4    48   1
    52     6    49   1
    53     6    50   1
    54     7    51   1
    55     8    52   1
    56     9    53   1
    57    10    54   1
    58    11    55   1
    59    12    56   1
    60    13    57   1
    61    14    58   1
    62    15    59   1
    63    16    60   1
    64    17    61   1
    65    17    62   1
    66    17    63   1
    67    18    64   1
    68    18    65   1
    69    19    66   1
    70    20    67   1
    71    22    68   1
    72    23    69   1
    73    24    70   1
    74    25    71   1
    75    26    72   1
    76    27    73   1
    77    27    74   1
    78    28    75   1
    79    29    76   1
    80    32    77   1
    81    33    78   1
    82    34    79   1
    83    35    80   1
    84    36    81   1
    85    37    82   1
    86    38    83   1
    87    38    84   1
    88    39    85   1
    89    40    86   1
    90    41    87   1
    91    44    88   1
@<TRIPOS>SUBSTRUCTURE
     1  ACR      1

