@<TRIPOS>MOLECULE
2qmj_ligand_062
    88    91
SMALL
GAST_HUCK
****
This file was generated by PARSER (from files_GN.cpp)

@<TRIPOS>ATOM
      1 C1A       -20.3690   -6.5778  -10.6949 C.3         1 ACR       0.0141
      2 C2A       -21.4338   -7.4868  -11.3965 C.3         1 ACR       0.1303
      3 C3A       -20.9385   -8.9605  -11.3811 C.3         1 ACR       0.1215
      4 C4A       -19.5530   -9.0755  -12.0910 C.3         1 ACR       0.1112
      5 C5A       -18.6337   -7.9393  -11.8776 C.2         1 ACR      -0.0200
      6 C6A       -17.2801   -8.0070  -12.4325 C.3         1 ACR       0.0719
      7 C7A       -19.0524   -6.7899  -11.3081 C.2         1 ACR      -0.0543
      8 O2A       -22.7018   -7.3958  -10.7538 O.3         1 ACR      -0.3821
      9 O3A       -21.9020   -9.8440  -11.9741 O.3         1 ACR      -0.3843
     10 O4A       -18.9740  -10.2982  -11.6469 O.3         1 ACR      -0.3780
     11 O6A       -17.2791   -7.7064  -13.8255 O.3         1 ACR      -0.3839
     12 C1B       -17.6492   -6.8637   -5.8161 C.3         1 ACR       0.1886
     13 C2B       -17.8578   -5.5040   -6.5287 C.3         1 ACR       0.1370
     14 C3B       -19.1445   -5.5167   -7.3922 C.3         1 ACR       0.1304
     15 C4B       -19.1497   -6.7316   -8.3601 C.3         1 ACR       0.0341
     16 C5B       -18.9558   -8.0473   -7.5419 C.3         1 ACR       0.1038
     17 C6B       -18.8743   -9.3147   -8.4392 C.3         1 ACR      -0.0332
     18 N4B       -20.3968   -6.7568   -9.2043 N.4         1 ACR       0.2433
     19 O2B       -17.8987   -4.4606   -5.5607 O.3         1 ACR      -0.3840
     20 O3B       -19.2279   -4.3129   -8.1540 O.3         1 ACR      -0.3834
     21 O5B       -17.7261   -7.9529   -6.7676 O.3         1 ACR      -0.3401
     22 C1C       -16.4195   -7.8959   -1.1547 C.3         1 ACR       0.1884
     23 C2C       -16.8941   -9.1347   -1.9716 C.3         1 ACR       0.1341
     24 C3C       -17.2445   -8.7441   -3.4262 C.3         1 ACR       0.1144
     25 C4C       -18.2566   -7.5460   -3.4612 C.3         1 ACR       0.1184
     26 C5C       -17.7755   -6.3852   -2.5329 C.3         1 ACR       0.1134
     27 C6C       -18.8556   -5.2903   -2.3209 C.3         1 ACR       0.0730
     28 O2C       -15.8930  -10.1560   -1.9376 O.3         1 ACR      -0.3841
     29 O3C       -17.8011   -9.8754   -4.0980 O.3         1 ACR      -0.3864
     30 O4C       -18.6294   -7.0631   -4.7697 O.3         1 ACR      -0.3401
     31 O5C       -17.4370   -6.8727   -1.2210 O.3         1 ACR      -0.3405
     32 O6C       -20.0105   -5.8000   -1.6579 O.3         1 ACR      -0.3924
     33 C1D       -12.9581   -4.5357   -2.1749 C.3         1 ACR       0.1854
     34 C2D       -12.5672   -5.9943   -2.5311 C.3         1 ACR       0.1339
     35 C3D       -12.7922   -6.9408   -1.3215 C.3         1 ACR       0.1144
     36 C4D       -14.2174   -6.7768   -0.7053 C.3         1 ACR       0.1184
     37 C5D       -14.5559   -5.2722   -0.4563 C.3         1 ACR       0.1134
     38 C6D       -13.9368   -4.6331    0.8264 C.3         1 ACR       0.0730
     39 O1D       -12.9170   -3.7212   -3.3442 O.3         1 ACR      -0.3649
     40 O2D       -13.3012   -6.4469   -3.6738 O.3         1 ACR      -0.3841
     41 O3D       -11.7989   -6.7124   -0.3199 O.3         1 ACR      -0.3864
     42 O4D       -15.1388   -7.4234   -1.6336 O.3         1 ACR      -0.3401
     43 O5D       -14.2946   -4.4704   -1.6302 O.3         1 ACR      -0.3407
     44 O6D       -14.1876   -5.4178    1.9889 O.3         1 ACR      -0.3924
     45 H1        -20.6561   -5.5362  -10.8835 H           1 ACR       0.0950
     46 H2        -21.5700   -7.1451  -12.4365 H           1 ACR       0.0694
     47 H3        -20.8312   -9.2702  -10.3375 H           1 ACR       0.0671
     48 H4        -19.7004   -9.1560  -13.1744 H           1 ACR       0.0769
     49 H5        -16.8432   -8.9985  -12.2822 H           1 ACR       0.0706
     50 H6        -16.5992   -7.2946  -11.9534 H           1 ACR       0.0706
     51 H7        -18.4288   -6.0029  -11.2694 H           1 ACR       0.0299
     52 H8        -22.8576   -6.4497  -10.5943 H           1 ACR       0.2103
     53 H9        -21.6105  -10.0074  -12.9169 H           1 ACR       0.2102
     54 H10       -18.3861  -10.6138  -12.3605 H           1 ACR       0.2130
     55 H11       -17.5265   -6.7621  -13.8774 H           1 ACR       0.2125
     56 H12       -16.6373   -6.8474   -5.4108 H           1 ACR       0.0938
     57 H13       -16.9992   -5.3199   -7.1831 H           1 ACR       0.0672
     58 H14       -20.0165   -5.5672   -6.7325 H           1 ACR       0.0679
     59 H15       -18.2607   -6.6304   -8.9845 H           1 ACR       0.0903
     60 H16       -19.8044   -8.1797   -6.8592 H           1 ACR       0.0652
     61 H17       -18.5379  -10.1663   -7.8303 H           1 ACR       0.0257
     62 H18       -18.1481   -9.1607   -9.2411 H           1 ACR       0.0257
     63 H19       -19.8514   -9.5282   -8.9030 H           1 ACR       0.0257
     64 H20       -20.8816   -7.6373   -9.0005 H           1 ACR       0.2029
     65 H21       -21.0053   -6.0084   -8.8490 H           1 ACR       0.2029
     66 H22       -17.8763   -3.6251   -6.0693 H           1 ACR       0.2101
     67 H23       -20.1230   -3.9620   -7.9607 H           1 ACR       0.2102
     68 H24       -16.3375   -8.2083   -0.1085 H           1 ACR       0.0938
     69 H25       -17.7883   -9.5377   -1.4864 H           1 ACR       0.0671
     70 H26       -16.3212   -8.4696   -3.9411 H           1 ACR       0.0648
     71 H27       -19.1853   -7.9296   -3.0330 H           1 ACR       0.0651
     72 H28       -16.9037   -5.9093   -2.9853 H           1 ACR       0.0647
     73 H29       -19.1672   -4.8682   -3.2743 H           1 ACR       0.0584
     74 H30       -18.4392   -4.4830   -1.7146 H           1 ACR       0.0584
     75 H31       -15.1063   -9.7743   -2.3825 H           1 ACR       0.2101
     76 H32       -17.8034   -9.6446   -5.0484 H           1 ACR       0.2100
     77 H33       -19.7102   -6.0230   -0.7507 H           1 ACR       0.2095
     78 H34       -12.2369   -4.1212   -1.4621 H           1 ACR       0.0935
     79 H35       -11.5097   -6.0196   -2.8078 H           1 ACR       0.0671
     80 H36       -12.6641   -7.9737   -1.6522 H           1 ACR       0.0648
     81 H37       -14.2364   -7.3314    0.2376 H           1 ACR       0.0651
     82 H38       -15.6286   -5.1891   -0.2956 H           1 ACR       0.0647
     83 H39       -14.3897   -3.6557    0.9870 H           1 ACR       0.0584
     84 H40       -12.8629   -4.4933    0.7213 H           1 ACR       0.0584
     85 H41       -13.4407   -2.9251   -3.1125 H           1 ACR       0.2126
     86 H42       -14.2446   -6.4089   -3.4129 H           1 ACR       0.2101
     87 H43       -10.9548   -7.0144   -0.7186 H           1 ACR       0.2100
     88 H44       -13.4694   -6.0854    2.0173 H           1 ACR       0.2095
@<TRIPOS>BOND
     1     1     2   1
     2     1     7   1
     3    18     1   1
     4     2     3   1
     5     2     8   1
     6     3     4   1
     7     3     9   1
     8     5     4   1
     9     4    10   1
    10     5     6   1
    11     7     5   2
    12     6    11   1
    13    12    13   1
    14    12    21   1
    15    30    12   1
    16    13    14   1
    17    13    19   1
    18    14    15   1
    19    14    20   1
    20    16    15   1
    21    15    18   1
    22    16    17   1
    23    21    16   1
    24    22    23   1
    25    22    31   1
    26    42    22   1
    27    23    24   1
    28    23    28   1
    29    24    25   1
    30    24    29   1
    31    26    25   1
    32    25    30   1
    33    26    27   1
    34    31    26   1
    35    27    32   1
    36    34    33   1
    37    33    39   1
    38    33    43   1
    39    35    34   1
    40    34    40   1
    41    36    35   1
    42    35    41   1
    43    36    37   1
    44    36    42   1
    45    37    38   1
    46    37    43   1
    47    38    44   1
    48     1    45   1
    49     2    46   1
    50     3    47   1
    51     4    48   1
    52     6    49   1
    53     6    50   1
    54     7    51   1
    55     8    52   1
    56     9    53   1
    57    10    54   1
    58    11    55   1
    59    12    56   1
    60    13    57   1
    61    14    58   1
    62    15    59   1
    63    16    60   1
    64    17    61   1
    65    17    62   1
    66    17    63   1
    67    18    64   1
    68    18    65   1
    69    19    66   1
    70    20    67   1
    71    22    68   1
    72    23    69   1
    73    24    70   1
    74    25    71   1
    75    26    72   1
    76    27    73   1
    77    27    74   1
    78    28    75   1
    79    29    76   1
    80    32    77   1
    81    33    78   1
    82    34    79   1
    83    35    80   1
    84    36    81   1
    85    37    82   1
    86    38    83   1
    87    38    84   1
    88    39    85   1
    89    40    86   1
    90    41    87   1
    91    44    88   1
@<TRIPOS>SUBSTRUCTURE
     1  ACR      1

