@<TRIPOS>MOLECULE
2qmj_ligand_004
    88    91
SMALL
GAST_HUCK
****
This file was generated by PARSER (from files_GN.cpp)

@<TRIPOS>ATOM
      1 C1A       -19.6535   -6.2208  -10.6360 C.3         1 ACR       0.0141
      2 C2A       -20.7470   -5.7780  -11.6533 C.3         1 ACR       0.1303
      3 C3A       -21.7553   -6.9351  -11.8862 C.3         1 ACR       0.1215
      4 C4A       -21.0201   -8.2512  -12.3039 C.3         1 ACR       0.1112
      5 C5A       -19.6419   -8.4195  -11.8042 C.2         1 ACR      -0.0200
      6 C6A       -18.8790   -9.5989  -12.2067 C.3         1 ACR       0.0719
      7 C7A       -19.0174   -7.4463  -11.1016 C.2         1 ACR      -0.0543
      8 O2A       -21.3817   -4.5802  -11.2195 O.3         1 ACR      -0.3821
      9 O3A       -22.7095   -6.5624  -12.8842 O.3         1 ACR      -0.3843
     10 O4A       -21.8154   -9.3721  -11.9039 O.3         1 ACR      -0.3780
     11 O6A       -18.0320  -10.0572  -11.1532 O.3         1 ACR      -0.3839
     12 C1B       -18.5434   -6.7137   -5.2339 C.3         1 ACR       0.1886
     13 C2B       -18.0705   -5.5293   -6.1228 C.3         1 ACR       0.1370
     14 C3B       -19.0938   -5.2993   -7.2803 C.3         1 ACR       0.1304
     15 C4B       -19.2509   -6.6054   -8.1188 C.3         1 ACR       0.0341
     16 C5B       -19.7130   -7.7558   -7.1661 C.3         1 ACR       0.1038
     17 C6B       -19.7541   -9.1276   -7.8710 C.3         1 ACR      -0.0332
     18 N4B       -20.2032   -6.3901   -9.2533 N.4         1 ACR       0.2433
     19 O2B       -17.9134   -4.3618   -5.3113 O.3         1 ACR      -0.3840
     20 O3B       -18.6767   -4.2060   -8.0962 O.3         1 ACR      -0.3834
     21 O5B       -18.8152   -7.8972   -6.0361 O.3         1 ACR      -0.3401
     22 C1C       -20.6080   -5.6758   -0.4058 C.3         1 ACR       0.1884
     23 C2C       -19.3595   -6.5616   -0.6343 C.3         1 ACR       0.1341
     24 C3C       -18.8600   -6.4800   -2.1052 C.3         1 ACR       0.1144
     25 C4C       -19.9938   -6.7331   -3.1435 C.3         1 ACR       0.1184
     26 C5C       -21.2701   -5.9160   -2.7516 C.3         1 ACR       0.1134
     27 C6C       -22.5200   -6.3355   -3.5655 C.3         1 ACR       0.0730
     28 O2C       -18.3155   -6.2039    0.2725 O.3         1 ACR      -0.3841
     29 O3C       -17.7988   -7.4250   -2.2623 O.3         1 ACR      -0.3864
     30 O4C       -19.6873   -6.2588   -4.4753 O.3         1 ACR      -0.3401
     31 O5C       -21.6204   -6.0440   -1.3550 O.3         1 ACR      -0.3405
     32 O6C       -23.3474   -5.2000   -3.8252 O.3         1 ACR      -0.3924
     33 C1D       -22.2393   -0.6530    0.6049 C.3         1 ACR       0.1854
     34 C2D       -23.0391   -1.9505    0.8941 C.3         1 ACR       0.1339
     35 C3D       -22.1321   -3.2127    0.8478 C.3         1 ACR       0.1144
     36 C4D       -21.2457   -3.2532   -0.4368 C.3         1 ACR       0.1184
     37 C5D       -20.5134   -1.8822   -0.5978 C.3         1 ACR       0.1134
     38 C6D       -19.6975   -1.7730   -1.9101 C.3         1 ACR       0.0730
     39 O1D       -21.4135   -0.2754    1.7074 O.3         1 ACR      -0.3649
     40 O2D       -23.7172   -1.8529    2.1475 O.3         1 ACR      -0.3841
     41 O3D       -22.9764   -4.3619    0.9091 O.3         1 ACR      -0.3864
     42 O4D       -20.2312   -4.2832   -0.4246 O.3         1 ACR      -0.3401
     43 O5D       -21.4655   -0.7946   -0.6001 O.3         1 ACR      -0.3407
     44 O6D       -18.6545   -0.8112   -1.7517 O.3         1 ACR      -0.3924
     45 H1        -18.9028   -5.4275  -10.6159 H           1 ACR       0.0950
     46 H2        -20.2743   -5.5437  -12.6109 H           1 ACR       0.0694
     47 H3        -22.3103   -7.1051  -10.9567 H           1 ACR       0.0671
     48 H4        -20.9585   -8.2729  -13.3981 H           1 ACR       0.0769
     49 H5        -18.2665   -9.3654  -13.0830 H           1 ACR       0.0706
     50 H6        -19.5294  -10.4349  -12.4729 H           1 ACR       0.0706
     51 H7        -18.0550   -7.5662  -10.8704 H           1 ACR       0.0299
     52 H8        -22.2191   -4.8622  -10.8047 H           1 ACR       0.2103
     53 H9        -23.2502   -7.3682  -13.0463 H           1 ACR       0.2102
     54 H10       -22.6176   -9.3352  -12.4681 H           1 ACR       0.2130
     55 H11       -17.1661   -9.6199  -11.3008 H           1 ACR       0.2125
     56 H12       -17.7147   -6.9572   -4.5722 H           1 ACR       0.0938
     57 H13       -17.0888   -5.7811   -6.5442 H           1 ACR       0.0672
     58 H14       -20.0600   -5.0220   -6.8461 H           1 ACR       0.0679
     59 H15       -18.2571   -6.8677   -8.4999 H           1 ACR       0.0903
     60 H16       -20.7106   -7.5281   -6.7943 H           1 ACR       0.0652
     61 H17       -19.9947   -9.9056   -7.1554 H           1 ACR       0.0257
     62 H18       -18.7914   -9.3555   -8.3228 H           1 ACR       0.0257
     63 H19       -20.5135   -9.1437   -8.6438 H           1 ACR       0.0257
     64 H20       -20.8399   -7.1839   -9.2828 H           1 ACR       0.2029
     65 H21       -20.7624   -5.5665   -9.0306 H           1 ACR       0.2029
     66 H22       -17.4785   -3.7095   -5.8882 H           1 ACR       0.2101
     67 H23       -18.4872   -3.4657   -7.4770 H           1 ACR       0.2102
     68 H24       -20.9892   -5.9123    0.5873 H           1 ACR       0.0938
     69 H25       -19.6290   -7.6008   -0.4126 H           1 ACR       0.0671
     70 H26       -18.4504   -5.4820   -2.2808 H           1 ACR       0.0648
     71 H27       -20.2427   -7.7989   -3.1648 H           1 ACR       0.0651
     72 H28       -21.0809   -4.8568   -2.9660 H           1 ACR       0.0647
     73 H29       -23.0989   -7.0722   -3.0016 H           1 ACR       0.0584
     74 H30       -22.2388   -6.7843   -4.5273 H           1 ACR       0.0584
     75 H31       -18.0875   -5.2736    0.0575 H           1 ACR       0.2101
     76 H32       -18.2150   -8.3028   -2.1540 H           1 ACR       0.2100
     77 H33       -24.0129   -5.5167   -4.4777 H           1 ACR       0.2095
     78 H34       -22.9519    0.1603    0.4397 H           1 ACR       0.0935
     79 H35       -23.8073   -2.0472    0.1212 H           1 ACR       0.0671
     80 H36       -21.4781   -3.2210    1.7242 H           1 ACR       0.0648
     81 H37       -21.8963   -3.3882   -1.3037 H           1 ACR       0.0651
     82 H38       -19.8088   -1.7622    0.2318 H           1 ACR       0.0647
     83 H39       -20.3491   -1.4772   -2.7363 H           1 ACR       0.0584
     84 H40       -19.2287   -2.7273   -2.1572 H           1 ACR       0.0584
     85 H41       -20.8941    0.4902    1.3851 H           1 ACR       0.2126
     86 H42       -23.0111   -1.7722    2.8235 H           1 ACR       0.2101
     87 H43       -23.3170   -4.3893    1.8290 H           1 ACR       0.2100
     88 H44       -18.4717   -0.4773   -2.6516 H           1 ACR       0.2095
@<TRIPOS>BOND
     1     1     2   1
     2     1     7   1
     3    18     1   1
     4     2     3   1
     5     2     8   1
     6     3     4   1
     7     3     9   1
     8     5     4   1
     9     4    10   1
    10     5     6   1
    11     7     5   2
    12     6    11   1
    13    12    13   1
    14    12    21   1
    15    30    12   1
    16    13    14   1
    17    13    19   1
    18    14    15   1
    19    14    20   1
    20    16    15   1
    21    15    18   1
    22    16    17   1
    23    21    16   1
    24    22    23   1
    25    22    31   1
    26    42    22   1
    27    23    24   1
    28    23    28   1
    29    24    25   1
    30    24    29   1
    31    26    25   1
    32    25    30   1
    33    26    27   1
    34    31    26   1
    35    27    32   1
    36    34    33   1
    37    33    39   1
    38    33    43   1
    39    35    34   1
    40    34    40   1
    41    36    35   1
    42    35    41   1
    43    36    37   1
    44    36    42   1
    45    37    38   1
    46    37    43   1
    47    38    44   1
    48     1    45   1
    49     2    46   1
    50     3    47   1
    51     4    48   1
    52     6    49   1
    53     6    50   1
    54     7    51   1
    55     8    52   1
    56     9    53   1
    57    10    54   1
    58    11    55   1
    59    12    56   1
    60    13    57   1
    61    14    58   1
    62    15    59   1
    63    16    60   1
    64    17    61   1
    65    17    62   1
    66    17    63   1
    67    18    64   1
    68    18    65   1
    69    19    66   1
    70    20    67   1
    71    22    68   1
    72    23    69   1
    73    24    70   1
    74    25    71   1
    75    26    72   1
    76    27    73   1
    77    27    74   1
    78    28    75   1
    79    29    76   1
    80    32    77   1
    81    33    78   1
    82    34    79   1
    83    35    80   1
    84    36    81   1
    85    37    82   1
    86    38    83   1
    87    38    84   1
    88    39    85   1
    89    40    86   1
    90    41    87   1
    91    44    88   1
@<TRIPOS>SUBSTRUCTURE
     1  ACR      1

