@<TRIPOS>MOLECULE
2qmj_ligand_038
    88    91
SMALL
GAST_HUCK
****
This file was generated by PARSER (from files_GN.cpp)

@<TRIPOS>ATOM
      1 C1A       -19.9865   -6.1297  -10.7842 C.3         1 ACR       0.0141
      2 C2A       -21.4064   -6.2945  -11.4531 C.3         1 ACR       0.1303
      3 C3A       -21.3136   -6.7683  -12.9290 C.3         1 ACR       0.1215
      4 C4A       -20.4223   -8.0425  -13.0227 C.3         1 ACR       0.1112
      5 C5A       -19.1189   -7.8910  -12.3588 C.2         1 ACR      -0.0200
      6 C6A       -18.0150   -8.7620  -12.7574 C.3         1 ACR       0.0719
      7 C7A       -18.9509   -6.9986  -11.3557 C.2         1 ACR      -0.0543
      8 O2A       -22.2360   -7.2428  -10.7672 O.3         1 ACR      -0.3821
      9 O3A       -20.7963   -5.7162  -13.7426 O.3         1 ACR      -0.3843
     10 O4A       -21.1147   -9.1531  -12.4418 O.3         1 ACR      -0.3780
     11 O6A       -18.2934  -10.1008  -12.3622 O.3         1 ACR      -0.3839
     12 C1B       -18.0135   -6.8938   -5.5976 C.3         1 ACR       0.1886
     13 C2B       -17.4479   -5.7919   -6.5358 C.3         1 ACR       0.1370
     14 C3B       -18.5260   -5.3882   -7.5805 C.3         1 ACR       0.1304
     15 C4B       -19.0123   -6.6327   -8.3876 C.3         1 ACR       0.0341
     16 C5B       -19.4453   -7.7755   -7.3960 C.3         1 ACR       0.1038
     17 C6B       -19.6911   -9.1303   -8.1086 C.3         1 ACR      -0.0332
     18 N4B       -20.1544   -6.2894   -9.3000 N.4         1 ACR       0.2433
     19 O2B       -16.9955   -4.6866   -5.7748 O.3         1 ACR      -0.3840
     20 O3B       -17.9966   -4.4072   -8.4726 O.3         1 ACR      -0.3834
     21 O5B       -18.4158   -8.0255   -6.3988 O.3         1 ACR      -0.3401
     22 C1C       -21.7372   -5.0131   -2.8474 C.3         1 ACR       0.1884
     23 C2C       -21.1986   -4.3283   -4.1360 C.3         1 ACR       0.1341
     24 C3C       -19.6457   -4.1955   -4.1029 C.3         1 ACR       0.1144
     25 C4C       -18.9531   -5.5329   -3.7101 C.3         1 ACR       0.1184
     26 C5C       -19.6009   -6.1881   -2.4506 C.3         1 ACR       0.1134
     27 C6C       -19.1636   -5.5822   -1.0869 C.3         1 ACR       0.0730
     28 O2C       -21.6026   -5.1125   -5.2673 O.3         1 ACR      -0.3841
     29 O3C       -19.2392   -3.1179   -3.2590 O.3         1 ACR      -0.3864
     30 O4C       -19.1407   -6.4811   -4.7888 O.3         1 ACR      -0.3401
     31 O5C       -21.0426   -6.2571   -2.5993 O.3         1 ACR      -0.3405
     32 O6C       -19.4415   -6.4986   -0.0327 O.3         1 ACR      -0.3924
     33 C1D       -26.4161   -6.9678   -1.0426 C.3         1 ACR       0.1854
     34 C2D       -25.1091   -6.8962   -0.2060 C.3         1 ACR       0.1339
     35 C3D       -24.0968   -5.9205   -0.8663 C.3         1 ACR       0.1144
     36 C4D       -23.8707   -6.2543   -2.3684 C.3         1 ACR       0.1184
     37 C5D       -25.2373   -6.4113   -3.1103 C.3         1 ACR       0.1134
     38 C6D       -25.0927   -6.9788   -4.5459 C.3         1 ACR       0.0730
     39 O1D       -27.1513   -5.7436   -0.9705 O.3         1 ACR      -0.3649
     40 O2D       -25.3928   -6.4925    1.1355 O.3         1 ACR      -0.3841
     41 O3D       -22.8696   -5.9692   -0.1350 O.3         1 ACR      -0.3864
     42 O4D       -23.1512   -5.2139   -3.0556 O.3         1 ACR      -0.3401
     43 O5D       -26.1139   -7.3144   -2.4081 O.3         1 ACR      -0.3407
     44 O6D       -24.0023   -6.3977   -5.2661 O.3         1 ACR      -0.3924
     45 H1        -19.6655   -5.0996  -10.9611 H           1 ACR       0.0950
     46 H2        -21.9301   -5.3306  -11.4412 H           1 ACR       0.0694
     47 H3        -22.3171   -7.0001  -13.3043 H           1 ACR       0.0671
     48 H4        -20.2747   -8.2555  -14.0886 H           1 ACR       0.0769
     49 H5        -17.0641   -8.4773  -12.2977 H           1 ACR       0.0706
     50 H6        -17.8710   -8.7157  -13.8389 H           1 ACR       0.0706
     51 H7        -18.0293   -6.8401  -11.0252 H           1 ACR       0.0299
     52 H8        -22.9563   -6.7144  -10.3686 H           1 ACR       0.2103
     53 H9        -20.2994   -6.1636  -14.4575 H           1 ACR       0.2102
     54 H10       -20.8453   -9.9278  -12.9702 H           1 ACR       0.2130
     55 H11       -17.5004  -10.6116  -12.6232 H           1 ACR       0.2125
     56 H12       -17.2068   -7.2567   -4.9517 H           1 ACR       0.0938
     57 H13       -16.5869   -6.1984   -7.0663 H           1 ACR       0.0672
     58 H14       -19.3841   -4.9325   -7.0743 H           1 ACR       0.0679
     59 H15       -18.1638   -7.0188   -8.9400 H           1 ACR       0.0903
     60 H16       -20.3792   -7.4875   -6.8850 H           1 ACR       0.0652
     61 H17       -19.9612   -9.8925   -7.3715 H           1 ACR       0.0257
     62 H18       -18.7861   -9.4558   -8.6268 H           1 ACR       0.0257
     63 H19       -20.5049   -9.0503   -8.8312 H           1 ACR       0.0257
     64 H20       -20.8727   -7.0146   -9.1678 H           1 ACR       0.2029
     65 H21       -20.5696   -5.4137   -8.9431 H           1 ACR       0.2029
     66 H22       -17.1104   -3.9054   -6.3512 H           1 ACR       0.2101
     67 H23       -17.0364   -4.6227   -8.5493 H           1 ACR       0.2102
     68 H24       -21.6193   -4.3304   -1.9984 H           1 ACR       0.0938
     69 H25       -21.6551   -3.3345   -4.2377 H           1 ACR       0.0671
     70 H26       -19.3186   -3.9050   -5.1018 H           1 ACR       0.0648
     71 H27       -17.8943   -5.3493   -3.5099 H           1 ACR       0.0651
     72 H28       -19.2650   -7.2265   -2.4236 H           1 ACR       0.0647
     73 H29       -19.6880   -4.6496   -0.8769 H           1 ACR       0.0584
     74 H30       -18.0895   -5.3747   -1.1019 H           1 ACR       0.0584
     75 H31       -21.5672   -4.5202   -6.0475 H           1 ACR       0.2101
     76 H32       -19.8940   -3.0732   -2.5279 H           1 ACR       0.2100
     77 H33       -19.1096   -6.0584    0.7806 H           1 ACR       0.2095
     78 H34       -27.0531   -7.7565   -0.6307 H           1 ACR       0.0935
     79 H35       -24.6636   -7.8968   -0.1704 H           1 ACR       0.0671
     80 H36       -24.4868   -4.8997   -0.7771 H           1 ACR       0.0648
     81 H37       -23.3313   -7.2028   -2.4425 H           1 ACR       0.0651
     82 H38       -25.7143   -5.4341   -3.1880 H           1 ACR       0.0647
     83 H39       -26.0130   -6.7716   -5.1167 H           1 ACR       0.0584
     84 H40       -24.9459   -8.0656   -4.5165 H           1 ACR       0.0584
     85 H41       -27.8191   -5.8180   -1.6884 H           1 ACR       0.2126
     86 H42       -25.8810   -7.2429    1.5321 H           1 ACR       0.2101
     87 H43       -22.5262   -6.8792   -0.2635 H           1 ACR       0.2100
     88 H44       -23.8750   -6.9845   -6.0403 H           1 ACR       0.2095
@<TRIPOS>BOND
     1     1     2   1
     2     1     7   1
     3    18     1   1
     4     2     3   1
     5     2     8   1
     6     3     4   1
     7     3     9   1
     8     5     4   1
     9     4    10   1
    10     5     6   1
    11     7     5   2
    12     6    11   1
    13    12    13   1
    14    12    21   1
    15    30    12   1
    16    13    14   1
    17    13    19   1
    18    14    15   1
    19    14    20   1
    20    16    15   1
    21    15    18   1
    22    16    17   1
    23    21    16   1
    24    22    23   1
    25    22    31   1
    26    42    22   1
    27    23    24   1
    28    23    28   1
    29    24    25   1
    30    24    29   1
    31    26    25   1
    32    25    30   1
    33    26    27   1
    34    31    26   1
    35    27    32   1
    36    34    33   1
    37    33    39   1
    38    33    43   1
    39    35    34   1
    40    34    40   1
    41    36    35   1
    42    35    41   1
    43    36    37   1
    44    36    42   1
    45    37    38   1
    46    37    43   1
    47    38    44   1
    48     1    45   1
    49     2    46   1
    50     3    47   1
    51     4    48   1
    52     6    49   1
    53     6    50   1
    54     7    51   1
    55     8    52   1
    56     9    53   1
    57    10    54   1
    58    11    55   1
    59    12    56   1
    60    13    57   1
    61    14    58   1
    62    15    59   1
    63    16    60   1
    64    17    61   1
    65    17    62   1
    66    17    63   1
    67    18    64   1
    68    18    65   1
    69    19    66   1
    70    20    67   1
    71    22    68   1
    72    23    69   1
    73    24    70   1
    74    25    71   1
    75    26    72   1
    76    27    73   1
    77    27    74   1
    78    28    75   1
    79    29    76   1
    80    32    77   1
    81    33    78   1
    82    34    79   1
    83    35    80   1
    84    36    81   1
    85    37    82   1
    86    38    83   1
    87    38    84   1
    88    39    85   1
    89    40    86   1
    90    41    87   1
    91    44    88   1
@<TRIPOS>SUBSTRUCTURE
     1  ACR      1

