@<TRIPOS>MOLECULE
2qmj_ligand_042
    88    91
SMALL
GAST_HUCK
****
This file was generated by PARSER (from files_GN.cpp)

@<TRIPOS>ATOM
      1 C1A       -19.5782   -6.1859  -10.7224 C.3         1 ACR       0.0141
      2 C2A       -20.7238   -5.7987  -11.7005 C.3         1 ACR       0.1303
      3 C3A       -21.6659   -7.0113  -11.9162 C.3         1 ACR       0.1215
      4 C4A       -20.8633   -8.2696  -12.3867 C.3         1 ACR       0.1112
      5 C5A       -19.4716   -8.3751  -11.9103 C.2         1 ACR      -0.0200
      6 C6A       -18.6522   -9.5157  -12.3169 C.3         1 ACR       0.0719
      7 C7A       -18.8876   -7.3795  -11.2062 C.2         1 ACR      -0.0543
      8 O2A       -21.4143   -4.6393  -11.2400 O.3         1 ACR      -0.3821
      9 O3A       -22.6768   -6.6720  -12.8694 O.3         1 ACR      -0.3843
     10 O4A       -21.6120   -9.4276  -12.0091 O.3         1 ACR      -0.3780
     11 O6A       -17.8418  -10.0030  -11.2493 O.3         1 ACR      -0.3839
     12 C1B       -18.1941   -6.8444   -5.4014 C.3         1 ACR       0.1886
     13 C2B       -17.9606   -5.5064   -6.1684 C.3         1 ACR       0.1370
     14 C3B       -19.0040   -5.3139   -7.3104 C.3         1 ACR       0.1304
     15 C4B       -19.0643   -6.5713   -8.2357 C.3         1 ACR       0.0341
     16 C5B       -19.3554   -7.8204   -7.3440 C.3         1 ACR       0.1038
     17 C6B       -19.3808   -9.1597   -8.1188 C.3         1 ACR      -0.0332
     18 N4B       -20.0759   -6.3759   -9.3223 N.4         1 ACR       0.2433
     19 O2B       -17.9814   -4.3975   -5.2665 O.3         1 ACR      -0.3840
     20 O3B       -18.6826   -4.1554   -8.0852 O.3         1 ACR      -0.3834
     21 O5B       -18.3221   -7.9390   -6.3331 O.3         1 ACR      -0.3401
     22 C1C       -20.2393   -6.5150   -0.3861 C.3         1 ACR       0.1884
     23 C2C       -20.8172   -5.4292   -1.3356 C.3         1 ACR       0.1341
     24 C3C       -20.7246   -5.8617   -2.8292 C.3         1 ACR       0.1144
     25 C4C       -19.2927   -6.3503   -3.2017 C.3         1 ACR       0.1184
     26 C5C       -18.8479   -7.4535   -2.1804 C.3         1 ACR       0.1134
     27 C6C       -17.4018   -7.9756   -2.3800 C.3         1 ACR       0.0730
     28 O2C       -22.1722   -5.1427   -0.9556 O.3         1 ACR      -0.3841
     29 O3C       -21.1020   -4.7732   -3.6742 O.3         1 ACR      -0.3864
     30 O4C       -19.3718   -6.8454   -4.5599 O.3         1 ACR      -0.3401
     31 O5C       -18.9317   -6.9357   -0.8303 O.3         1 ACR      -0.3405
     32 O6C       -16.4619   -6.9173   -2.5397 O.3         1 ACR      -0.3924
     33 C1D       -20.0634   -7.5865    3.4946 C.3         1 ACR       0.1854
     34 C2D       -19.1084   -8.2570    2.4611 C.3         1 ACR       0.1339
     35 C3D       -19.8856   -9.1083    1.4083 C.3         1 ACR       0.1144
     36 C4D       -21.2241   -8.4675    0.9037 C.3         1 ACR       0.1184
     37 C5D       -22.0344   -7.7250    2.0231 C.3         1 ACR       0.1134
     38 C6D       -23.0430   -8.5970    2.8267 C.3         1 ACR       0.0730
     39 O1D       -19.3675   -6.5930    4.2479 O.3         1 ACR      -0.3649
     40 O2D       -18.2790   -7.2890    1.8089 O.3         1 ACR      -0.3841
     41 O3D       -20.1523  -10.3969    1.9708 O.3         1 ACR      -0.3864
     42 O4D       -21.1088   -7.6641   -0.3066 O.3         1 ACR      -0.3401
     43 O5D       -21.1767   -6.9214    2.8613 O.3         1 ACR      -0.3407
     44 O6D       -22.4594   -9.7020    3.5058 O.3         1 ACR      -0.3924
     45 H1        -18.8752   -5.3460  -10.7198 H           1 ACR       0.0950
     46 H2        -20.2929   -5.5263  -12.6682 H           1 ACR       0.0694
     47 H3        -22.1743   -7.2295  -10.9701 H           1 ACR       0.0671
     48 H4        -20.8205   -8.2450  -13.4787 H           1 ACR       0.0769
     49 H5        -18.0003   -9.2326  -13.1479 H           1 ACR       0.0706
     50 H6        -19.2554  -10.3558  -12.6515 H           1 ACR       0.0706
     51 H7        -17.9213   -7.4501  -10.9716 H           1 ACR       0.0299
     52 H8        -22.2485   -4.9686  -10.8521 H           1 ACR       0.2103
     53 H9        -23.1813   -7.5002  -13.0240 H           1 ACR       0.2102
     54 H10       -21.5027  -10.0614  -12.7477 H           1 ACR       0.2130
     55 H11       -16.9881   -9.5141  -11.3268 H           1 ACR       0.2125
     56 H12       -17.3052   -7.0671   -4.8044 H           1 ACR       0.0938
     57 H13       -16.9635   -5.5440   -6.6182 H           1 ACR       0.0672
     58 H14       -19.9925   -5.1488   -6.8654 H           1 ACR       0.0679
     59 H15       -18.0654   -6.7083   -8.6644 H           1 ACR       0.0903
     60 H16       -20.3310   -7.7066   -6.8614 H           1 ACR       0.0652
     61 H17       -19.5653   -9.9863   -7.4271 H           1 ACR       0.0257
     62 H18       -18.4235   -9.3323   -8.6149 H           1 ACR       0.0257
     63 H19       -20.1776   -9.1597   -8.8656 H           1 ACR       0.0257
     64 H20       -20.7047   -7.1806   -9.3215 H           1 ACR       0.2029
     65 H21       -20.6390   -5.5600   -9.0661 H           1 ACR       0.2029
     66 H22       -17.5788   -3.6494   -5.7559 H           1 ACR       0.2101
     67 H23       -18.4601   -3.4505   -7.4424 H           1 ACR       0.2102
     68 H24       -20.1237   -6.0357    0.5854 H           1 ACR       0.0938
     69 H25       -20.2294   -4.5105   -1.2093 H           1 ACR       0.0671
     70 H26       -21.4377   -6.6744   -3.0010 H           1 ACR       0.0648
     71 H27       -18.6131   -5.4950   -3.1177 H           1 ACR       0.0651
     72 H28       -19.5160   -8.3154   -2.2779 H           1 ACR       0.0647
     73 H29       -17.3608   -8.6117   -3.2663 H           1 ACR       0.0584
     74 H30       -17.1125   -8.5724   -1.5098 H           1 ACR       0.0584
     75 H31       -22.4076   -4.2889   -1.3734 H           1 ACR       0.2101
     76 H32       -20.4409   -4.0717   -3.5010 H           1 ACR       0.2100
     77 H33       -16.4411   -6.4623   -1.6739 H           1 ACR       0.2095
     78 H34       -20.4191   -8.3380    4.2119 H           1 ACR       0.0935
     79 H35       -18.4206   -8.9166    3.0144 H           1 ACR       0.0671
     80 H36       -19.2381   -9.2804    0.5486 H           1 ACR       0.0648
     81 H37       -21.8476   -9.2961    0.5556 H           1 ACR       0.0651
     82 H38       -22.6615   -6.9895    1.5103 H           1 ACR       0.0647
     83 H39       -23.8077   -8.9784    2.1484 H           1 ACR       0.0584
     84 H40       -23.5316   -7.9646    3.5641 H           1 ACR       0.0584
     85 H41       -18.7148   -7.0824    4.7842 H           1 ACR       0.2126
     86 H42       -17.7317   -6.9053    2.5181 H           1 ACR       0.2101
     87 H43       -19.2835  -10.8488    2.0212 H           1 ACR       0.2100
     88 H44       -22.0927  -10.2687    2.8020 H           1 ACR       0.2095
@<TRIPOS>BOND
     1     1     2   1
     2     1     7   1
     3    18     1   1
     4     2     3   1
     5     2     8   1
     6     3     4   1
     7     3     9   1
     8     5     4   1
     9     4    10   1
    10     5     6   1
    11     7     5   2
    12     6    11   1
    13    12    13   1
    14    12    21   1
    15    30    12   1
    16    13    14   1
    17    13    19   1
    18    14    15   1
    19    14    20   1
    20    16    15   1
    21    15    18   1
    22    16    17   1
    23    21    16   1
    24    22    23   1
    25    22    31   1
    26    42    22   1
    27    23    24   1
    28    23    28   1
    29    24    25   1
    30    24    29   1
    31    26    25   1
    32    25    30   1
    33    26    27   1
    34    31    26   1
    35    27    32   1
    36    34    33   1
    37    33    39   1
    38    33    43   1
    39    35    34   1
    40    34    40   1
    41    36    35   1
    42    35    41   1
    43    36    37   1
    44    36    42   1
    45    37    38   1
    46    37    43   1
    47    38    44   1
    48     1    45   1
    49     2    46   1
    50     3    47   1
    51     4    48   1
    52     6    49   1
    53     6    50   1
    54     7    51   1
    55     8    52   1
    56     9    53   1
    57    10    54   1
    58    11    55   1
    59    12    56   1
    60    13    57   1
    61    14    58   1
    62    15    59   1
    63    16    60   1
    64    17    61   1
    65    17    62   1
    66    17    63   1
    67    18    64   1
    68    18    65   1
    69    19    66   1
    70    20    67   1
    71    22    68   1
    72    23    69   1
    73    24    70   1
    74    25    71   1
    75    26    72   1
    76    27    73   1
    77    27    74   1
    78    28    75   1
    79    29    76   1
    80    32    77   1
    81    33    78   1
    82    34    79   1
    83    35    80   1
    84    36    81   1
    85    37    82   1
    86    38    83   1
    87    38    84   1
    88    39    85   1
    89    40    86   1
    90    41    87   1
    91    44    88   1
@<TRIPOS>SUBSTRUCTURE
     1  ACR      1

