@<TRIPOS>MOLECULE
2qmj_ligand_060
    88    91
SMALL
GAST_HUCK
****
This file was generated by PARSER (from files_GN.cpp)

@<TRIPOS>ATOM
      1 C1A       -19.6288   -6.2710  -10.9229 C.3         1 ACR       0.0141
      2 C2A       -20.6261   -5.8950  -12.0636 C.3         1 ACR       0.1303
      3 C3A       -21.6669   -7.0246  -12.2369 C.3         1 ACR       0.1215
      4 C4A       -20.9482   -8.3837  -12.5212 C.3         1 ACR       0.1112
      5 C5A       -19.6430   -8.5804  -11.8682 C.2         1 ACR      -0.0200
      6 C6A       -18.9449   -9.8580  -12.0201 C.3         1 ACR       0.0719
      7 C7A       -19.0189   -7.5722  -11.2150 C.2         1 ACR      -0.0543
      8 O2A       -21.2633   -4.6309  -11.8682 O.3         1 ACR      -0.3821
      9 O3A       -22.5565   -6.7034  -13.3053 O.3         1 ACR      -0.3843
     10 O4A       -21.8693   -9.4214  -12.1802 O.3         1 ACR      -0.3780
     11 O6A       -17.7348   -9.7005  -12.7538 O.3         1 ACR      -0.3839
     12 C1B       -19.3358   -6.7497   -5.3978 C.3         1 ACR       0.1886
     13 C2B       -18.7217   -5.5120   -6.1141 C.3         1 ACR       0.1370
     14 C3B       -19.3679   -5.2781   -7.5085 C.3         1 ACR       0.1304
     15 C4B       -19.4733   -6.5791   -8.3632 C.3         1 ACR       0.0341
     16 C5B       -20.1016   -7.7236   -7.5074 C.3         1 ACR       0.1038
     17 C6B       -20.1268   -9.1008   -8.2145 C.3         1 ACR      -0.0332
     18 N4B       -20.2968   -6.3126   -9.5853 N.4         1 ACR       0.2433
     19 O2B       -18.8658   -4.3469   -5.2952 O.3         1 ACR      -0.3840
     20 O3B       -18.6266   -4.2951   -8.2315 O.3         1 ACR      -0.3834
     21 O5B       -19.3461   -7.8884   -6.2848 O.3         1 ACR      -0.3401
     22 C1C       -23.0778   -7.2306   -1.4969 C.3         1 ACR       0.1884
     23 C2C       -23.0200   -5.7952   -2.0802 C.3         1 ACR       0.1341
     24 C3C       -22.4139   -5.7922   -3.5062 C.3         1 ACR       0.1144
     25 C4C       -21.0503   -6.5431   -3.5722 C.3         1 ACR       0.1184
     26 C5C       -21.2204   -7.9681   -2.9320 C.3         1 ACR       0.1134
     27 C6C       -19.9216   -8.7976   -2.7463 C.3         1 ACR       0.0730
     28 O2C       -24.3201   -5.2119   -2.1096 O.3         1 ACR      -0.3841
     29 O3C       -22.2648   -4.4449   -3.9619 O.3         1 ACR      -0.3864
     30 O4C       -20.6933   -6.5226   -4.9698 O.3         1 ACR      -0.3401
     31 O5C       -21.7792   -7.8435   -1.6016 O.3         1 ACR      -0.3405
     32 O6C       -19.5332   -9.4804   -3.9319 O.3         1 ACR      -0.3924
     33 C1D       -25.8138  -10.1869    1.1709 C.3         1 ACR       0.1854
     34 C2D       -24.8086  -10.9849    0.3038 C.3         1 ACR       0.1339
     35 C3D       -23.9517  -10.0243   -0.5608 C.3         1 ACR       0.1144
     36 C4D       -24.8417   -9.0360   -1.3808 C.3         1 ACR       0.1184
     37 C5D       -25.9552   -8.3786   -0.4950 C.3         1 ACR       0.1134
     38 C6D       -27.0883   -7.6912   -1.3072 C.3         1 ACR       0.0730
     39 O1D       -25.1801   -9.4072    2.1853 O.3         1 ACR      -0.3649
     40 O2D       -23.9802  -11.8205    1.1111 O.3         1 ACR      -0.3841
     41 O3D       -23.1184  -10.7788   -1.4389 O.3         1 ACR      -0.3864
     42 O4D       -24.0907   -8.0479   -2.1404 O.3         1 ACR      -0.3401
     43 O5D       -26.6330   -9.3506    0.3359 O.3         1 ACR      -0.3407
     44 O6D       -26.6103   -6.8468   -2.3467 O.3         1 ACR      -0.3924
     45 H1        -18.8490   -5.5029  -10.8968 H           1 ACR       0.0950
     46 H2        -20.0749   -5.8132  -13.0054 H           1 ACR       0.0694
     47 H3        -22.2681   -7.1003  -11.3259 H           1 ACR       0.0671
     48 H4        -20.7680   -8.4394  -13.6000 H           1 ACR       0.0769
     49 H5        -19.5511  -10.5984  -12.5405 H           1 ACR       0.0706
     50 H6        -18.7058  -10.2663  -11.0373 H           1 ACR       0.0706
     51 H7        -18.1054   -7.7266  -10.8484 H           1 ACR       0.0299
     52 H8        -20.6026   -3.9675  -12.1613 H           1 ACR       0.2103
     53 H9        -23.1944   -7.4465  -13.3378 H           1 ACR       0.2102
     54 H10       -21.6741  -10.1544  -12.8015 H           1 ACR       0.2130
     55 H11       -18.0236   -9.5268  -13.6739 H           1 ACR       0.2125
     56 H12       -18.6870   -6.9927   -4.5512 H           1 ACR       0.0938
     57 H13       -17.6486   -5.6822   -6.2569 H           1 ACR       0.0672
     58 H14       -20.3706   -4.8757   -7.3486 H           1 ACR       0.0679
     59 H15       -18.4567   -6.8812   -8.6201 H           1 ACR       0.0903
     60 H16       -21.1380   -7.4691   -7.2757 H           1 ACR       0.0652
     61 H17       -20.5394   -9.8552   -7.5443 H           1 ACR       0.0257
     62 H18       -19.1190   -9.4026   -8.5022 H           1 ACR       0.0257
     63 H19       -20.7542   -9.0711   -9.1056 H           1 ACR       0.0257
     64 H20       -21.0105   -7.0380   -9.6334 H           1 ACR       0.2029
     65 H21       -20.7912   -5.4316   -9.4329 H           1 ACR       0.2029
     66 H22       -18.5165   -3.5954   -5.8268 H           1 ACR       0.2101
     67 H23       -17.7017   -4.6234   -8.2621 H           1 ACR       0.2102
     68 H24       -23.2902   -7.1200   -0.4307 H           1 ACR       0.0938
     69 H25       -22.3878   -5.1796   -1.4320 H           1 ACR       0.0671
     70 H26       -23.1218   -6.2825   -4.1825 H           1 ACR       0.0648
     71 H27       -20.3173   -5.9697   -2.9936 H           1 ACR       0.0651
     72 H28       -21.9001   -8.5612   -3.5541 H           1 ACR       0.0647
     73 H29       -20.0694   -9.5606   -1.9819 H           1 ACR       0.0584
     74 H30       -19.0979   -8.1635   -2.4206 H           1 ACR       0.0584
     75 H31       -24.6435   -5.2346   -1.1840 H           1 ACR       0.2101
     76 H32       -21.6166   -4.0302   -3.3539 H           1 ACR       0.2100
     77 H33       -20.2856  -10.0673   -4.1594 H           1 ACR       0.2095
     78 H34       -26.4850  -10.8900    1.6698 H           1 ACR       0.0935
     79 H35       -25.3794  -11.6401   -0.3597 H           1 ACR       0.0671
     80 H36       -23.2960   -9.4648    0.1089 H           1 ACR       0.0648
     81 H37       -25.3567   -9.6418   -2.1301 H           1 ACR       0.0651
     82 H38       -25.5022   -7.6245    0.1523 H           1 ACR       0.0647
     83 H39       -27.6958   -7.0841   -0.6336 H           1 ACR       0.0584
     84 H40       -27.7366   -8.4476   -1.7571 H           1 ACR       0.0584
     85 H41       -24.7520  -10.0553    2.7839 H           1 ACR       0.2126
     86 H42       -23.4381  -11.2158    1.6602 H           1 ACR       0.2101
     87 H43       -23.7314  -11.3216   -1.9806 H           1 ACR       0.2100
     88 H44       -27.4205   -6.4852   -2.7642 H           1 ACR       0.2095
@<TRIPOS>BOND
     1     1     2   1
     2     1     7   1
     3    18     1   1
     4     2     3   1
     5     2     8   1
     6     3     4   1
     7     3     9   1
     8     5     4   1
     9     4    10   1
    10     5     6   1
    11     7     5   2
    12     6    11   1
    13    12    13   1
    14    12    21   1
    15    30    12   1
    16    13    14   1
    17    13    19   1
    18    14    15   1
    19    14    20   1
    20    16    15   1
    21    15    18   1
    22    16    17   1
    23    21    16   1
    24    22    23   1
    25    22    31   1
    26    42    22   1
    27    23    24   1
    28    23    28   1
    29    24    25   1
    30    24    29   1
    31    26    25   1
    32    25    30   1
    33    26    27   1
    34    31    26   1
    35    27    32   1
    36    34    33   1
    37    33    39   1
    38    33    43   1
    39    35    34   1
    40    34    40   1
    41    36    35   1
    42    35    41   1
    43    36    37   1
    44    36    42   1
    45    37    38   1
    46    37    43   1
    47    38    44   1
    48     1    45   1
    49     2    46   1
    50     3    47   1
    51     4    48   1
    52     6    49   1
    53     6    50   1
    54     7    51   1
    55     8    52   1
    56     9    53   1
    57    10    54   1
    58    11    55   1
    59    12    56   1
    60    13    57   1
    61    14    58   1
    62    15    59   1
    63    16    60   1
    64    17    61   1
    65    17    62   1
    66    17    63   1
    67    18    64   1
    68    18    65   1
    69    19    66   1
    70    20    67   1
    71    22    68   1
    72    23    69   1
    73    24    70   1
    74    25    71   1
    75    26    72   1
    76    27    73   1
    77    27    74   1
    78    28    75   1
    79    29    76   1
    80    32    77   1
    81    33    78   1
    82    34    79   1
    83    35    80   1
    84    36    81   1
    85    37    82   1
    86    38    83   1
    87    38    84   1
    88    39    85   1
    89    40    86   1
    90    41    87   1
    91    44    88   1
@<TRIPOS>SUBSTRUCTURE
     1  ACR      1

