@<TRIPOS>MOLECULE
2qmj_ligand_010
    88    91
SMALL
GAST_HUCK
****
This file was generated by PARSER (from files_GN.cpp)

@<TRIPOS>ATOM
      1 C1A       -19.6104   -6.2203  -10.6535 C.3         1 ACR       0.0141
      2 C2A       -20.7504   -5.7968  -11.6155 C.3         1 ACR       0.1303
      3 C3A       -21.7768   -6.9470  -11.7989 C.3         1 ACR       0.1215
      4 C4A       -21.0617   -8.2751  -12.2306 C.3         1 ACR       0.1112
      5 C5A       -19.7054   -8.4843  -11.7082 C.2         1 ACR      -0.0200
      6 C6A       -19.0051   -9.7481  -11.9707 C.3         1 ACR       0.0719
      7 C7A       -19.0376   -7.5070  -11.0530 C.2         1 ACR      -0.0543
      8 O2A       -21.3553   -4.5775  -11.1772 O.3         1 ACR      -0.3821
      9 O3A       -22.7430   -6.5663  -12.7745 O.3         1 ACR      -0.3843
     10 O4A       -21.8988   -9.3772  -11.8648 O.3         1 ACR      -0.3780
     11 O6A       -17.8316   -9.5353  -12.7443 O.3         1 ACR      -0.3839
     12 C1B       -17.9376   -6.4117   -5.3724 C.3         1 ACR       0.1886
     13 C2B       -17.2313   -5.7404   -6.5962 C.3         1 ACR       0.1370
     14 C3B       -18.2843   -5.3191   -7.6623 C.3         1 ACR       0.1304
     15 C4B       -19.0860   -6.5730   -8.1392 C.3         1 ACR       0.0341
     16 C5B       -19.7462   -7.2070   -6.8637 C.3         1 ACR       0.1038
     17 C6B       -20.4952   -8.5394   -7.1555 C.3         1 ACR      -0.0332
     18 N4B       -20.0701   -6.2596   -9.2270 N.4         1 ACR       0.2433
     19 O2B       -16.3353   -4.6806   -6.2741 O.3         1 ACR      -0.3840
     20 O3B       -17.6447   -4.6505   -8.7459 O.3         1 ACR      -0.3834
     21 O5B       -18.7322   -7.5127   -5.8626 O.3         1 ACR      -0.3401
     22 C1C       -18.7294   -2.3509   -1.7297 C.3         1 ACR       0.1884
     23 C2C       -19.6577   -2.2995   -2.9718 C.3         1 ACR       0.1341
     24 C3C       -19.8434   -3.6970   -3.6228 C.3         1 ACR       0.1144
     25 C4C       -18.4699   -4.3844   -3.8931 C.3         1 ACR       0.1184
     26 C5C       -17.6866   -4.4495   -2.5366 C.3         1 ACR       0.1134
     27 C6C       -16.2528   -5.0600   -2.6372 C.3         1 ACR       0.0730
     28 O2C       -20.9243   -1.7531   -2.6139 O.3         1 ACR      -0.3841
     29 O3C       -20.5783   -3.5495   -4.8344 O.3         1 ACR      -0.3864
     30 O4C       -18.8223   -5.6447   -4.5161 O.3         1 ACR      -0.3401
     31 O5C       -17.5270   -3.0991   -2.0084 O.3         1 ACR      -0.3405
     32 O6C       -16.1707   -6.3211   -1.9658 O.3         1 ACR      -0.3924
     33 C1D       -18.3194   -0.4838    2.8205 C.3         1 ACR       0.1854
     34 C2D       -17.5320   -1.8144    2.6307 C.3         1 ACR       0.1339
     35 C3D       -17.6776   -2.3558    1.1811 C.3         1 ACR       0.1144
     36 C4D       -19.1752   -2.4235    0.7614 C.3         1 ACR       0.1184
     37 C5D       -19.9121   -1.0603    1.0266 C.3         1 ACR       0.1134
     38 C6D       -21.4510   -1.1300    0.7772 C.3         1 ACR       0.0730
     39 O1D       -17.6887    0.6023    2.1345 O.3         1 ACR      -0.3649
     40 O2D       -16.1562   -1.6343    2.9797 O.3         1 ACR      -0.3841
     41 O3D       -17.0934   -3.6597    1.0917 O.3         1 ACR      -0.3864
     42 O4D       -19.4208   -2.9150   -0.5911 O.3         1 ACR      -0.3401
     43 O5D       -19.6908   -0.6394    2.4017 O.3         1 ACR      -0.3407
     44 O6D       -21.8458   -0.4470   -0.4113 O.3         1 ACR      -0.3924
     45 H1        -18.8418   -5.4578  -10.7543 H           1 ACR       0.0950
     46 H2        -20.3080   -5.5827  -12.5933 H           1 ACR       0.0694
     47 H3        -22.2961   -7.1019  -10.8549 H           1 ACR       0.0671
     48 H4        -20.9768   -8.2770  -13.3230 H           1 ACR       0.0769
     49 H5        -19.6318  -10.4598  -12.5024 H           1 ACR       0.0706
     50 H6        -18.7177  -10.2083  -11.0236 H           1 ACR       0.0706
     51 H7        -18.0884   -7.6663  -10.7857 H           1 ACR       0.0299
     52 H8        -21.9335   -4.8196  -10.4269 H           1 ACR       0.2103
     53 H9        -23.2904   -7.3693  -12.9413 H           1 ACR       0.2102
     54 H10       -22.6620   -9.3497  -12.4824 H           1 ACR       0.2130
     55 H11       -18.1448   -9.5135  -13.6724 H           1 ACR       0.2125
     56 H12       -17.1595   -6.8562   -4.7479 H           1 ACR       0.0938
     57 H13       -16.5963   -6.5205   -7.0511 H           1 ACR       0.0672
     58 H14       -18.9694   -4.5914   -7.2159 H           1 ACR       0.0679
     59 H15       -18.3678   -7.3090   -8.5065 H           1 ACR       0.0903
     60 H16       -20.4858   -6.5031   -6.4486 H           1 ACR       0.0652
     61 H17       -20.8856   -8.9486   -6.2214 H           1 ACR       0.0257
     62 H18       -19.8165   -9.2679   -7.6036 H           1 ACR       0.0257
     63 H19       -21.3405   -8.3791   -7.8308 H           1 ACR       0.0257
     64 H20       -20.8125   -6.9642   -9.1805 H           1 ACR       0.2029
     65 H21       -20.5084   -5.3652   -8.9791 H           1 ACR       0.2029
     66 H22       -16.7825   -3.8533   -6.5202 H           1 ACR       0.2101
     67 H23       -16.9051   -5.2468   -9.0076 H           1 ACR       0.2102
     68 H24       -18.4289   -1.3244   -1.5109 H           1 ACR       0.0938
     69 H25       -19.1929   -1.6383   -3.7120 H           1 ACR       0.0671
     70 H26       -20.4396   -4.3244   -2.9547 H           1 ACR       0.0648
     71 H27       -17.9226   -3.7559   -4.5921 H           1 ACR       0.0651
     72 H28       -18.2640   -5.0437   -1.8148 H           1 ACR       0.0647
     73 H29       -15.5164   -4.3937   -2.1506 H           1 ACR       0.0584
     74 H30       -15.9531   -5.1862   -3.6893 H           1 ACR       0.0584
     75 H31       -21.5426   -2.1207   -3.2859 H           1 ACR       0.2101
     76 H32       -20.0102   -3.0117   -5.4331 H           1 ACR       0.2100
     77 H33       -16.7946   -6.9066   -2.4442 H           1 ACR       0.2095
     78 H34       -18.3254   -0.2508    3.8899 H           1 ACR       0.0935
     79 H35       -17.9448   -2.5588    3.3222 H           1 ACR       0.0671
     80 H36       -17.1367   -1.6918    0.5077 H           1 ACR       0.0648
     81 H37       -19.6459   -3.1628    1.4124 H           1 ACR       0.0651
     82 H38       -19.4894   -0.2921    0.3753 H           1 ACR       0.0647
     83 H39       -22.0003   -0.6848    1.6150 H           1 ACR       0.0584
     84 H40       -21.7854   -2.1641    0.6889 H           1 ACR       0.0584
     85 H41       -17.5267    1.2983    2.8222 H           1 ACR       0.2126
     86 H42       -15.7930   -1.0179    2.3090 H           1 ACR       0.2101
     87 H43       -16.1284   -3.5353    1.2217 H           1 ACR       0.2100
     88 H44       -21.8416    0.5125   -0.1748 H           1 ACR       0.2095
@<TRIPOS>BOND
     1     1     2   1
     2     1     7   1
     3    18     1   1
     4     2     3   1
     5     2     8   1
     6     3     4   1
     7     3     9   1
     8     5     4   1
     9     4    10   1
    10     5     6   1
    11     7     5   2
    12     6    11   1
    13    12    13   1
    14    12    21   1
    15    30    12   1
    16    13    14   1
    17    13    19   1
    18    14    15   1
    19    14    20   1
    20    16    15   1
    21    15    18   1
    22    16    17   1
    23    21    16   1
    24    22    23   1
    25    22    31   1
    26    42    22   1
    27    23    24   1
    28    23    28   1
    29    24    25   1
    30    24    29   1
    31    26    25   1
    32    25    30   1
    33    26    27   1
    34    31    26   1
    35    27    32   1
    36    34    33   1
    37    33    39   1
    38    33    43   1
    39    35    34   1
    40    34    40   1
    41    36    35   1
    42    35    41   1
    43    36    37   1
    44    36    42   1
    45    37    38   1
    46    37    43   1
    47    38    44   1
    48     1    45   1
    49     2    46   1
    50     3    47   1
    51     4    48   1
    52     6    49   1
    53     6    50   1
    54     7    51   1
    55     8    52   1
    56     9    53   1
    57    10    54   1
    58    11    55   1
    59    12    56   1
    60    13    57   1
    61    14    58   1
    62    15    59   1
    63    16    60   1
    64    17    61   1
    65    17    62   1
    66    17    63   1
    67    18    64   1
    68    18    65   1
    69    19    66   1
    70    20    67   1
    71    22    68   1
    72    23    69   1
    73    24    70   1
    74    25    71   1
    75    26    72   1
    76    27    73   1
    77    27    74   1
    78    28    75   1
    79    29    76   1
    80    32    77   1
    81    33    78   1
    82    34    79   1
    83    35    80   1
    84    36    81   1
    85    37    82   1
    86    38    83   1
    87    38    84   1
    88    39    85   1
    89    40    86   1
    90    41    87   1
    91    44    88   1
@<TRIPOS>SUBSTRUCTURE
     1  ACR      1

