@<TRIPOS>MOLECULE
2qmj_ligand_013
    88    91
SMALL
GAST_HUCK
****
This file was generated by PARSER (from files_GN.cpp)

@<TRIPOS>ATOM
      1 C1A       -19.6333   -6.2837  -10.6142 C.3         1 ACR       0.0141
      2 C2A       -20.7295   -5.8522  -11.6342 C.3         1 ACR       0.1303
      3 C3A       -21.7293   -7.0163  -11.8548 C.3         1 ACR       0.1215
      4 C4A       -20.9802   -8.3064  -12.3122 C.3         1 ACR       0.1112
      5 C5A       -19.6429   -8.5154  -11.7265 C.2         1 ACR      -0.0200
      6 C6A       -18.9197   -9.7632  -11.9807 C.3         1 ACR       0.0719
      7 C7A       -19.0236   -7.5501  -11.0101 C.2         1 ACR      -0.0543
      8 O2A       -21.3780   -4.6452  -11.2283 O.3         1 ACR      -0.3821
      9 O3A       -22.7134   -6.6379  -12.8191 O.3         1 ACR      -0.3843
     10 O4A       -21.8450   -9.4115  -12.0400 O.3         1 ACR      -0.3780
     11 O6A       -17.7282   -9.5270  -12.7256 O.3         1 ACR      -0.3839
     12 C1B       -18.5803   -6.7339   -5.2127 C.3         1 ACR       0.1886
     13 C2B       -18.1710   -5.4854   -6.0485 C.3         1 ACR       0.1370
     14 C3B       -19.1427   -5.2909   -7.2401 C.3         1 ACR       0.1304
     15 C4B       -19.2252   -6.5857   -8.0993 C.3         1 ACR       0.0341
     16 C5B       -19.6153   -7.7885   -7.1816 C.3         1 ACR       0.1038
     17 C6B       -19.6099   -9.1530   -7.9142 C.3         1 ACR      -0.0332
     18 N4B       -20.1851   -6.3938   -9.2301 N.4         1 ACR       0.2433
     19 O2B       -18.0991   -4.3158   -5.2391 O.3         1 ACR      -0.3840
     20 O3B       -18.7176   -4.2041   -8.0596 O.3         1 ACR      -0.3834
     21 O5B       -18.6891   -7.8886   -6.0713 O.3         1 ACR      -0.3401
     22 C1C       -21.6894   -7.7182   -1.4351 C.3         1 ACR       0.1884
     23 C2C       -22.2935   -6.7876   -2.5301 C.3         1 ACR       0.1341
     24 C3C       -21.3041   -5.6154   -2.8296 C.3         1 ACR       0.1144
     25 C4C       -19.8520   -6.1071   -3.1376 C.3         1 ACR       0.1184
     26 C5C       -19.3777   -7.1996   -2.1113 C.3         1 ACR       0.1134
     27 C6C       -18.7891   -6.6515   -0.7740 C.3         1 ACR       0.0730
     28 O2C       -22.5885   -7.5341   -3.7161 O.3         1 ACR      -0.3841
     29 O3C       -21.2775   -4.6994   -1.7274 O.3         1 ACR      -0.3864
     30 O4C       -19.8355   -6.6083   -4.4995 O.3         1 ACR      -0.3401
     31 O5C       -20.3999   -8.1961   -1.8684 O.3         1 ACR      -0.3405
     32 O6C       -17.4209   -6.2540   -0.9142 O.3         1 ACR      -0.3924
     33 C1D       -24.6210  -10.7791    1.9053 C.3         1 ACR       0.1854
     34 C2D       -25.3284  -10.6611    0.5303 C.3         1 ACR       0.1339
     35 C3D       -24.2961  -10.2841   -0.5682 C.3         1 ACR       0.1144
     36 C4D       -23.4417   -9.0347   -0.1889 C.3         1 ACR       0.1184
     37 C5D       -22.8294   -9.2458    1.2425 C.3         1 ACR       0.1134
     38 C6D       -22.0768   -8.0248    1.8358 C.3         1 ACR       0.0730
     39 O1D       -23.7761  -11.9317    1.9666 O.3         1 ACR      -0.3649
     40 O2D       -25.9746  -11.8943    0.2100 O.3         1 ACR      -0.3841
     41 O3D       -24.9659  -10.0645   -1.8107 O.3         1 ACR      -0.3864
     42 O4D       -22.4334   -8.9347   -1.2214 O.3         1 ACR      -0.3401
     43 O5D       -23.8756   -9.5768    2.1911 O.3         1 ACR      -0.3407
     44 O6D       -22.0174   -8.0906    3.2618 O.3         1 ACR      -0.3924
     45 H1        -18.8666   -5.5035  -10.6260 H           1 ACR       0.0950
     46 H2        -20.2483   -5.6298  -12.5914 H           1 ACR       0.0694
     47 H3        -22.2518   -7.2072  -10.9120 H           1 ACR       0.0671
     48 H4        -20.8480   -8.2528  -13.3971 H           1 ACR       0.0769
     49 H5        -19.5157  -10.4897  -12.5357 H           1 ACR       0.0706
     50 H6        -18.6477  -10.2269  -11.0305 H           1 ACR       0.0706
     51 H7        -18.1051   -7.7233  -10.6692 H           1 ACR       0.0299
     52 H8        -22.2299   -4.9167  -10.8380 H           1 ACR       0.2103
     53 H9        -23.2206   -7.4552  -13.0049 H           1 ACR       0.2102
     54 H10       -21.7645  -10.0074  -12.8124 H           1 ACR       0.2130
     55 H11       -18.0221   -9.5176  -13.6598 H           1 ACR       0.2125
     56 H12       -17.7691   -6.9554   -4.5174 H           1 ACR       0.0938
     57 H13       -17.1667   -5.6618   -6.4393 H           1 ACR       0.0672
     58 H14       -20.1303   -5.0383   -6.8477 H           1 ACR       0.0679
     59 H15       -18.2168   -6.7775   -8.4791 H           1 ACR       0.0903
     60 H16       -20.6273   -7.6311   -6.7938 H           1 ACR       0.0652
     61 H17       -19.8316   -9.9544   -7.2083 H           1 ACR       0.0257
     62 H18       -18.6344   -9.3476   -8.3618 H           1 ACR       0.0257
     63 H19       -20.3694   -9.1763   -8.6967 H           1 ACR       0.0257
     64 H20       -20.8444   -7.1728   -9.2226 H           1 ACR       0.2029
     65 H21       -20.7247   -5.5469   -9.0283 H           1 ACR       0.2029
     66 H22       -17.6235   -3.6510   -5.7793 H           1 ACR       0.2101
     67 H23       -18.4898   -3.4610   -7.4623 H           1 ACR       0.2102
     68 H24       -21.5875   -7.1566   -0.4992 H           1 ACR       0.0938
     69 H25       -23.2407   -6.3796   -2.1611 H           1 ACR       0.0671
     70 H26       -21.6790   -5.0551   -3.6939 H           1 ACR       0.0648
     71 H27       -19.1906   -5.2382   -3.0675 H           1 ACR       0.0651
     72 H28       -18.5669   -7.7709   -2.5667 H           1 ACR       0.0647
     73 H29       -18.8218   -7.4509   -0.0240 H           1 ACR       0.0584
     74 H30       -19.3681   -5.7974   -0.3984 H           1 ACR       0.0584
     75 H31       -21.7254   -7.8883   -4.0189 H           1 ACR       0.2101
     76 H32       -22.1195   -4.1982   -1.7880 H           1 ACR       0.2100
     77 H33       -17.4512   -5.4471   -1.4743 H           1 ACR       0.2095
     78 H34       -25.3845  -10.8832    2.6833 H           1 ACR       0.0935
     79 H35       -26.0931   -9.8805    0.5906 H           1 ACR       0.0671
     80 H36       -23.6210  -11.1345   -0.7136 H           1 ACR       0.0648
     81 H37       -24.0931   -8.1549   -0.1831 H           1 ACR       0.0651
     82 H38       -22.1108  -10.0724    1.1985 H           1 ACR       0.0647
     83 H39       -22.5852   -7.1008    1.5475 H           1 ACR       0.0584
     84 H40       -21.0475   -8.0040    1.4705 H           1 ACR       0.0584
     85 H41       -23.2391  -11.7976    2.7751 H           1 ACR       0.2126
     86 H42       -26.6514  -12.0209    0.9085 H           1 ACR       0.2101
     87 H43       -25.0327  -10.9540   -2.2201 H           1 ACR       0.2100
     88 H44       -21.5530   -7.2640    3.5268 H           1 ACR       0.2095
@<TRIPOS>BOND
     1     1     2   1
     2     1     7   1
     3    18     1   1
     4     2     3   1
     5     2     8   1
     6     3     4   1
     7     3     9   1
     8     5     4   1
     9     4    10   1
    10     5     6   1
    11     7     5   2
    12     6    11   1
    13    12    13   1
    14    12    21   1
    15    30    12   1
    16    13    14   1
    17    13    19   1
    18    14    15   1
    19    14    20   1
    20    16    15   1
    21    15    18   1
    22    16    17   1
    23    21    16   1
    24    22    23   1
    25    22    31   1
    26    42    22   1
    27    23    24   1
    28    23    28   1
    29    24    25   1
    30    24    29   1
    31    26    25   1
    32    25    30   1
    33    26    27   1
    34    31    26   1
    35    27    32   1
    36    34    33   1
    37    33    39   1
    38    33    43   1
    39    35    34   1
    40    34    40   1
    41    36    35   1
    42    35    41   1
    43    36    37   1
    44    36    42   1
    45    37    38   1
    46    37    43   1
    47    38    44   1
    48     1    45   1
    49     2    46   1
    50     3    47   1
    51     4    48   1
    52     6    49   1
    53     6    50   1
    54     7    51   1
    55     8    52   1
    56     9    53   1
    57    10    54   1
    58    11    55   1
    59    12    56   1
    60    13    57   1
    61    14    58   1
    62    15    59   1
    63    16    60   1
    64    17    61   1
    65    17    62   1
    66    17    63   1
    67    18    64   1
    68    18    65   1
    69    19    66   1
    70    20    67   1
    71    22    68   1
    72    23    69   1
    73    24    70   1
    74    25    71   1
    75    26    72   1
    76    27    73   1
    77    27    74   1
    78    28    75   1
    79    29    76   1
    80    32    77   1
    81    33    78   1
    82    34    79   1
    83    35    80   1
    84    36    81   1
    85    37    82   1
    86    38    83   1
    87    38    84   1
    88    39    85   1
    89    40    86   1
    90    41    87   1
    91    44    88   1
@<TRIPOS>SUBSTRUCTURE
     1  ACR      1

