@<TRIPOS>MOLECULE
2qmj_ligand_053
    88    91
SMALL
GAST_HUCK
****
This file was generated by PARSER (from files_GN.cpp)

@<TRIPOS>ATOM
      1 C1A       -19.5961   -6.1402  -10.7826 C.3         1 ACR       0.0141
      2 C2A       -20.7937   -5.7964  -11.7129 C.3         1 ACR       0.1303
      3 C3A       -21.7472   -7.0170  -11.8095 C.3         1 ACR       0.1215
      4 C4A       -20.9724   -8.3161  -12.2134 C.3         1 ACR       0.1112
      5 C5A       -19.5379   -8.3697  -11.8763 C.2         1 ACR      -0.0200
      6 C6A       -18.7481   -9.5270  -12.2942 C.3         1 ACR       0.0719
      7 C7A       -18.9081   -7.3271  -11.2897 C.2         1 ACR      -0.0543
      8 O2A       -21.4550   -4.6125  -11.2696 O.3         1 ACR      -0.3821
      9 O3A       -22.7923   -6.7330  -12.7394 O.3         1 ACR      -0.3843
     10 O4A       -21.6354   -9.4419  -11.6327 O.3         1 ACR      -0.3780
     11 O6A       -17.9931  -10.0610  -11.2123 O.3         1 ACR      -0.3839
     12 C1B       -18.1619   -6.8952   -5.5035 C.3         1 ACR       0.1886
     13 C2B       -17.8733   -5.5619   -6.2434 C.3         1 ACR       0.1370
     14 C3B       -18.9211   -5.3303   -7.3659 C.3         1 ACR       0.1304
     15 C4B       -18.9896   -6.5598   -8.3224 C.3         1 ACR       0.0341
     16 C5B       -19.2606   -7.8459   -7.4773 C.3         1 ACR       0.1038
     17 C6B       -19.2083   -9.1564   -8.3007 C.3         1 ACR      -0.0332
     18 N4B       -20.0390   -6.3469   -9.3671 N.4         1 ACR       0.2433
     19 O2B       -17.8731   -4.4777   -5.3104 O.3         1 ACR      -0.3840
     20 O3B       -18.6062   -4.1600   -8.1128 O.3         1 ACR      -0.3834
     21 O5B       -18.2656   -7.9912   -6.4374 O.3         1 ACR      -0.3401
     22 C1C       -21.0199   -8.6648   -1.3092 C.3         1 ACR       0.1884
     23 C2C       -19.6800   -9.2825   -1.7831 C.3         1 ACR       0.1341
     24 C3C       -18.9501   -8.3398   -2.7751 C.3         1 ACR       0.1144
     25 C4C       -19.8738   -7.8844   -3.9493 C.3         1 ACR       0.1184
     26 C5C       -21.2725   -7.4362   -3.4115 C.3         1 ACR       0.1134
     27 C6C       -22.3329   -7.2720   -4.5296 C.3         1 ACR       0.0730
     28 O2C       -18.8346   -9.5912   -0.6758 O.3         1 ACR      -0.3841
     29 O3C       -17.8139   -9.0385   -3.2828 O.3         1 ACR      -0.3864
     30 O4C       -19.3383   -6.7523   -4.6793 O.3         1 ACR      -0.3401
     31 O5C       -21.8323   -8.3647   -2.4569 O.3         1 ACR      -0.3405
     32 O6C       -21.8411   -6.5089   -5.6278 O.3         1 ACR      -0.3924
     33 C1D       -20.9847   -6.4195    3.5748 C.3         1 ACR       0.1854
     34 C2D       -21.0853   -7.9373    3.2893 C.3         1 ACR       0.1339
     35 C3D       -20.6522   -8.2474    1.8298 C.3         1 ACR       0.1144
     36 C4D       -21.4058   -7.3588    0.7914 C.3         1 ACR       0.1184
     37 C5D       -21.3506   -5.8558    1.2267 C.3         1 ACR       0.1134
     38 C6D       -22.2814   -4.9322    0.4015 C.3         1 ACR       0.0730
     39 O1D       -19.6274   -5.9747    3.6016 O.3         1 ACR      -0.3649
     40 O2D       -20.3028   -8.6809    4.2245 O.3         1 ACR      -0.3841
     41 O3D       -20.8834   -9.6334    1.5748 O.3         1 ACR      -0.3864
     42 O4D       -20.7937   -7.4749   -0.5158 O.3         1 ACR      -0.3401
     43 O5D       -21.7519   -5.6868    2.6045 O.3         1 ACR      -0.3407
     44 O6D       -21.6428   -4.4360   -0.7705 O.3         1 ACR      -0.3924
     45 H1        -18.9078   -5.2899  -10.8030 H           1 ACR       0.0950
     46 H2        -20.4129   -5.5734  -12.7144 H           1 ACR       0.0694
     47 H3        -22.2213   -7.1571  -10.8346 H           1 ACR       0.0671
     48 H4        -21.0458   -8.4217  -13.2999 H           1 ACR       0.0769
     49 H5        -18.0640   -9.2355  -13.0939 H           1 ACR       0.0706
     50 H6        -19.3754  -10.3339  -12.6719 H           1 ACR       0.0706
     51 H7        -17.9192   -7.3641  -11.1588 H           1 ACR       0.0299
     52 H8        -22.2849   -4.9134  -10.8554 H           1 ACR       0.2103
     53 H9        -23.2488   -7.5879  -12.8909 H           1 ACR       0.2102
     54 H10       -21.0801   -9.7041  -10.8706 H           1 ACR       0.2130
     55 H11       -17.2374  -10.5210  -11.6370 H           1 ACR       0.2125
     56 H12       -17.3011   -7.0874   -4.8601 H           1 ACR       0.0938
     57 H13       -16.8721   -5.6233   -6.6837 H           1 ACR       0.0672
     58 H14       -19.9018   -5.1643   -6.9107 H           1 ACR       0.0679
     59 H15       -18.0046   -6.6759   -8.7883 H           1 ACR       0.0903
     60 H16       -20.2578   -7.7825   -7.0309 H           1 ACR       0.0652
     61 H17       -19.3643  -10.0150   -7.6426 H           1 ACR       0.0257
     62 H18       -18.2339   -9.2610   -8.7828 H           1 ACR       0.0257
     63 H19       -19.9878   -9.1703   -9.0643 H           1 ACR       0.0257
     64 H20       -20.6583   -7.1592   -9.3588 H           1 ACR       0.2029
     65 H21       -20.6026   -5.5373   -9.0819 H           1 ACR       0.2029
     66 H22       -17.4910   -3.7143   -5.7907 H           1 ACR       0.2101
     67 H23       -18.3925   -3.4594   -7.4630 H           1 ACR       0.2102
     68 H24       -21.5576   -9.4316   -0.7465 H           1 ACR       0.0938
     69 H25       -19.8973  -10.2270   -2.2922 H           1 ACR       0.0671
     70 H26       -18.5986   -7.4568   -2.2353 H           1 ACR       0.0648
     71 H27       -20.0154   -8.7311   -4.6291 H           1 ACR       0.0651
     72 H28       -21.1639   -6.4632   -2.9271 H           1 ACR       0.0647
     73 H29       -23.2096   -6.7600   -4.1256 H           1 ACR       0.0584
     74 H30       -22.6512   -8.2502   -4.8936 H           1 ACR       0.0584
     75 H31       -18.6214   -8.7319   -0.2572 H           1 ACR       0.2101
     76 H32       -17.1668   -9.0539   -2.5472 H           1 ACR       0.2100
     77 H33       -22.5255   -6.5995   -6.3252 H           1 ACR       0.2095
     78 H34       -21.4157   -6.2177    4.5578 H           1 ACR       0.0935
     79 H35       -22.1278   -8.2450    3.4192 H           1 ACR       0.0671
     80 H36       -19.5761   -8.0634    1.7313 H           1 ACR       0.0648
     81 H37       -22.4571   -7.6632    0.7520 H           1 ACR       0.0651
     82 H38       -20.3277   -5.4854    1.1060 H           1 ACR       0.0647
     83 H39       -22.5663   -4.0667    1.0080 H           1 ACR       0.0584
     84 H40       -23.1932   -5.4623    0.1107 H           1 ACR       0.0584
     85 H41       -19.6817   -4.9977    3.5934 H           1 ACR       0.2126
     86 H42       -19.3775   -8.3897    4.0811 H           1 ACR       0.2101
     87 H43       -20.2021  -10.1119    2.0934 H           1 ACR       0.2100
     88 H44       -22.2964   -3.8258   -1.1779 H           1 ACR       0.2095
@<TRIPOS>BOND
     1     1     2   1
     2     1     7   1
     3    18     1   1
     4     2     3   1
     5     2     8   1
     6     3     4   1
     7     3     9   1
     8     5     4   1
     9     4    10   1
    10     5     6   1
    11     7     5   2
    12     6    11   1
    13    12    13   1
    14    12    21   1
    15    30    12   1
    16    13    14   1
    17    13    19   1
    18    14    15   1
    19    14    20   1
    20    16    15   1
    21    15    18   1
    22    16    17   1
    23    21    16   1
    24    22    23   1
    25    22    31   1
    26    42    22   1
    27    23    24   1
    28    23    28   1
    29    24    25   1
    30    24    29   1
    31    26    25   1
    32    25    30   1
    33    26    27   1
    34    31    26   1
    35    27    32   1
    36    34    33   1
    37    33    39   1
    38    33    43   1
    39    35    34   1
    40    34    40   1
    41    36    35   1
    42    35    41   1
    43    36    37   1
    44    36    42   1
    45    37    38   1
    46    37    43   1
    47    38    44   1
    48     1    45   1
    49     2    46   1
    50     3    47   1
    51     4    48   1
    52     6    49   1
    53     6    50   1
    54     7    51   1
    55     8    52   1
    56     9    53   1
    57    10    54   1
    58    11    55   1
    59    12    56   1
    60    13    57   1
    61    14    58   1
    62    15    59   1
    63    16    60   1
    64    17    61   1
    65    17    62   1
    66    17    63   1
    67    18    64   1
    68    18    65   1
    69    19    66   1
    70    20    67   1
    71    22    68   1
    72    23    69   1
    73    24    70   1
    74    25    71   1
    75    26    72   1
    76    27    73   1
    77    27    74   1
    78    28    75   1
    79    29    76   1
    80    32    77   1
    81    33    78   1
    82    34    79   1
    83    35    80   1
    84    36    81   1
    85    37    82   1
    86    38    83   1
    87    38    84   1
    88    39    85   1
    89    40    86   1
    90    41    87   1
    91    44    88   1
@<TRIPOS>SUBSTRUCTURE
     1  ACR      1

