@<TRIPOS>MOLECULE
2qmj_ligand_078
    88    91
SMALL
GAST_HUCK
****
This file was generated by PARSER (from files_GN.cpp)

@<TRIPOS>ATOM
      1 C1A       -20.7098   -7.5867  -10.0659 C.3         1 ACR       0.0141
      2 C2A       -19.4674   -7.2794  -10.9601 C.3         1 ACR       0.1303
      3 C3A       -19.7053   -7.8073  -12.4038 C.3         1 ACR       0.1215
      4 C4A       -21.0043   -7.1830  -13.0047 C.3         1 ACR       0.1112
      5 C5A       -22.1275   -7.0525  -12.0606 C.2         1 ACR      -0.0200
      6 C6A       -23.4081   -6.5438  -12.5400 C.3         1 ACR       0.0719
      7 C7A       -21.9690   -7.2789  -10.7377 C.2         1 ACR      -0.0543
      8 O2A       -19.2377   -5.8654  -10.9722 O.3         1 ACR      -0.3821
      9 O3A       -19.8041   -9.2344  -12.3670 O.3         1 ACR      -0.3843
     10 O4A       -20.7161   -5.8763  -13.5204 O.3         1 ACR      -0.3780
     11 O6A       -24.4805   -6.9954  -11.7182 O.3         1 ACR      -0.3839
     12 C1B       -18.1753   -6.2607   -5.3307 C.3         1 ACR       0.1886
     13 C2B       -17.4921   -6.0453   -6.7088 C.3         1 ACR       0.1370
     14 C3B       -18.5637   -5.8774   -7.8267 C.3         1 ACR       0.1304
     15 C4B       -19.5625   -7.0749   -7.8241 C.3         1 ACR       0.0341
     16 C5B       -20.1521   -7.2775   -6.3912 C.3         1 ACR       0.1038
     17 C6B       -20.9660   -8.5922   -6.2588 C.3         1 ACR      -0.0332
     18 N4B       -20.6782   -6.8255   -8.7838 N.4         1 ACR       0.2433
     19 O2B       -16.5972   -4.9277   -6.6880 O.3         1 ACR      -0.3840
     20 O3B       -17.9279   -5.7894   -9.1097 O.3         1 ACR      -0.3834
     21 O5B       -19.1171   -7.3540   -5.3857 O.3         1 ACR      -0.3401
     22 C1C       -18.3157   -3.9158   -1.4456 C.3         1 ACR       0.1884
     23 C2C       -18.3700   -5.4449   -1.7348 C.3         1 ACR       0.1341
     24 C3C       -19.5998   -5.8061   -2.6173 C.3         1 ACR       0.1144
     25 C4C       -19.7319   -4.8650   -3.8598 C.3         1 ACR       0.1184
     26 C5C       -19.6642   -3.3611   -3.4438 C.3         1 ACR       0.1134
     27 C6C       -20.9571   -2.7650   -2.8250 C.3         1 ACR       0.0730
     28 O2C       -17.2139   -5.9215   -2.4066 O.3         1 ACR      -0.3841
     29 O3C       -20.7795   -5.7746   -1.8093 O.3         1 ACR      -0.3864
     30 O4C       -18.6974   -4.9975   -4.8644 O.3         1 ACR      -0.3401
     31 O5C       -18.4970   -3.1167   -2.6325 O.3         1 ACR      -0.3405
     32 O6C       -20.6763   -1.5416   -2.1469 O.3         1 ACR      -0.3924
     33 C1D       -13.5833   -4.5656   -2.7057 C.3         1 ACR       0.1854
     34 C2D       -13.5462   -4.6682   -1.1617 C.3         1 ACR       0.1339
     35 C3D       -14.9726   -4.5288   -0.5596 C.3         1 ACR       0.1144
     36 C4D       -15.7901   -3.3411   -1.1685 C.3         1 ACR       0.1184
     37 C5D       -15.5625   -3.1101   -2.7083 C.3         1 ACR       0.1134
     38 C6D       -15.9848   -1.7027   -3.2408 C.3         1 ACR       0.0730
     39 O1D       -14.2552   -5.6855   -3.2911 O.3         1 ACR      -0.3649
     40 O2D       -12.9357   -5.8923   -0.7512 O.3         1 ACR      -0.3841
     41 O3D       -14.8856   -4.3919    0.8599 O.3         1 ACR      -0.3864
     42 O4D       -17.1643   -3.4266   -0.7080 O.3         1 ACR      -0.3401
     43 O5D       -14.1783   -3.3079   -3.0891 O.3         1 ACR      -0.3407
     44 O6D       -16.7261   -0.8984   -2.3182 O.3         1 ACR      -0.3924
     45 H1        -20.7366   -8.6552   -9.8381 H           1 ACR       0.0950
     46 H2        -18.5803   -7.7617  -10.5433 H           1 ACR       0.0694
     47 H3        -18.8440   -7.5534  -13.0303 H           1 ACR       0.0671
     48 H4        -21.3215   -7.8112  -13.8444 H           1 ACR       0.0769
     49 H5        -23.6189   -6.8411  -13.5698 H           1 ACR       0.0706
     50 H6        -23.3797   -5.4521  -12.5072 H           1 ACR       0.0706
     51 H7        -22.7828   -7.2634  -10.1621 H           1 ACR       0.0299
     52 H8        -18.6861   -5.6997  -11.7637 H           1 ACR       0.2103
     53 H9        -19.8904   -9.5281  -13.2952 H           1 ACR       0.2102
     54 H10       -20.2421   -6.0245  -14.3693 H           1 ACR       0.2130
     55 H11       -25.2955   -6.5951  -12.0962 H           1 ACR       0.2125
     56 H12       -17.3871   -6.5802   -4.6485 H           1 ACR       0.0938
     57 H13       -16.8908   -6.9319   -6.9424 H           1 ACR       0.0672
     58 H14       -19.1251   -4.9441   -7.6557 H           1 ACR       0.0679
     59 H15       -19.0131   -7.9790   -8.0950 H           1 ACR       0.0903
     60 H16       -20.8248   -6.4408   -6.1558 H           1 ACR       0.0652
     61 H17       -21.3892   -8.6682   -5.2529 H           1 ACR       0.0257
     62 H18       -20.3191   -9.4563   -6.4398 H           1 ACR       0.0257
     63 H19       -21.7843   -8.6060   -6.9774 H           1 ACR       0.0257
     64 H20       -21.5529   -7.0506   -8.2933 H           1 ACR       0.2029
     65 H21       -20.7220   -5.8245   -9.0034 H           1 ACR       0.2029
     66 H22       -17.1506   -4.1238   -6.7857 H           1 ACR       0.2101
     67 H23       -17.3345   -5.0032   -9.0147 H           1 ACR       0.2102
     68 H24       -19.1531   -3.6887   -0.7768 H           1 ACR       0.0938
     69 H25       -18.4329   -5.9773   -0.7792 H           1 ACR       0.0671
     70 H26       -19.5050   -6.8395   -2.9572 H           1 ACR       0.0648
     71 H27       -20.6939   -5.0553   -4.3396 H           1 ACR       0.0651
     72 H28       -19.5008   -2.7724   -4.3538 H           1 ACR       0.0647
     73 H29       -21.4217   -3.4479   -2.1134 H           1 ACR       0.0584
     74 H30       -21.6765   -2.5514   -3.6176 H           1 ACR       0.0584
     75 H31       -17.2591   -6.9023   -2.3200 H           1 ACR       0.2101
     76 H32       -21.4924   -6.1285   -2.3836 H           1 ACR       0.2100
     77 H33       -20.1255   -1.7944   -1.3749 H           1 ACR       0.2095
     78 H34       -12.5548   -4.5665   -3.0842 H           1 ACR       0.0935
     79 H35       -12.9230   -3.8559   -0.7849 H           1 ACR       0.0671
     80 H36       -15.4909   -5.4688   -0.7191 H           1 ACR       0.0648
     81 H37       -15.3937   -2.4476   -0.6811 H           1 ACR       0.0651
     82 H38       -16.1402   -3.8476   -3.2656 H           1 ACR       0.0647
     83 H39       -16.5898   -1.8316   -4.1437 H           1 ACR       0.0584
     84 H40       -15.1056   -1.1216   -3.5302 H           1 ACR       0.0584
     85 H41       -14.4254   -5.4236   -4.2214 H           1 ACR       0.2126
     86 H42       -13.4981   -6.6050   -1.1257 H           1 ACR       0.2101
     87 H43       -14.4242   -3.5397    1.0185 H           1 ACR       0.2100
     88 H44       -17.5189   -0.6162   -2.8183 H           1 ACR       0.2095
@<TRIPOS>BOND
     1     1     2   1
     2     1     7   1
     3    18     1   1
     4     2     3   1
     5     2     8   1
     6     3     4   1
     7     3     9   1
     8     5     4   1
     9     4    10   1
    10     5     6   1
    11     7     5   2
    12     6    11   1
    13    12    13   1
    14    12    21   1
    15    30    12   1
    16    13    14   1
    17    13    19   1
    18    14    15   1
    19    14    20   1
    20    16    15   1
    21    15    18   1
    22    16    17   1
    23    21    16   1
    24    22    23   1
    25    22    31   1
    26    42    22   1
    27    23    24   1
    28    23    28   1
    29    24    25   1
    30    24    29   1
    31    26    25   1
    32    25    30   1
    33    26    27   1
    34    31    26   1
    35    27    32   1
    36    34    33   1
    37    33    39   1
    38    33    43   1
    39    35    34   1
    40    34    40   1
    41    36    35   1
    42    35    41   1
    43    36    37   1
    44    36    42   1
    45    37    38   1
    46    37    43   1
    47    38    44   1
    48     1    45   1
    49     2    46   1
    50     3    47   1
    51     4    48   1
    52     6    49   1
    53     6    50   1
    54     7    51   1
    55     8    52   1
    56     9    53   1
    57    10    54   1
    58    11    55   1
    59    12    56   1
    60    13    57   1
    61    14    58   1
    62    15    59   1
    63    16    60   1
    64    17    61   1
    65    17    62   1
    66    17    63   1
    67    18    64   1
    68    18    65   1
    69    19    66   1
    70    20    67   1
    71    22    68   1
    72    23    69   1
    73    24    70   1
    74    25    71   1
    75    26    72   1
    76    27    73   1
    77    27    74   1
    78    28    75   1
    79    29    76   1
    80    32    77   1
    81    33    78   1
    82    34    79   1
    83    35    80   1
    84    36    81   1
    85    37    82   1
    86    38    83   1
    87    38    84   1
    88    39    85   1
    89    40    86   1
    90    41    87   1
    91    44    88   1
@<TRIPOS>SUBSTRUCTURE
     1  ACR      1

