@<TRIPOS>MOLECULE
2qmj_ligand_044
    88    91
SMALL
GAST_HUCK
****
This file was generated by PARSER (from files_GN.cpp)

@<TRIPOS>ATOM
      1 C1A       -19.5064   -6.1719  -10.9406 C.3         1 ACR       0.0141
      2 C2A       -20.6426   -5.8085  -11.9467 C.3         1 ACR       0.1303
      3 C3A       -21.6848   -6.9556  -11.9928 C.3         1 ACR       0.1215
      4 C4A       -20.9858   -8.3002  -12.3832 C.3         1 ACR       0.1112
      5 C5A       -19.6143   -8.4847  -11.8809 C.2         1 ACR      -0.0200
      6 C6A       -18.9191   -9.7614  -12.0804 C.3         1 ACR       0.0719
      7 C7A       -18.9218   -7.4640  -11.3207 C.2         1 ACR      -0.0543
      8 O2A       -21.2287   -4.5381  -11.6628 O.3         1 ACR      -0.3821
      9 O3A       -22.7097   -6.6371  -12.9314 O.3         1 ACR      -0.3843
     10 O4A       -21.8453   -9.3648  -11.9723 O.3         1 ACR      -0.3780
     11 O6A       -17.7114   -9.5884  -12.8161 O.3         1 ACR      -0.3839
     12 C1B       -18.1147   -6.8833   -5.6439 C.3         1 ACR       0.1886
     13 C2B       -17.5220   -5.7475   -6.5257 C.3         1 ACR       0.1370
     14 C3B       -18.5439   -5.3282   -7.6214 C.3         1 ACR       0.1304
     15 C4B       -18.9721   -6.5683   -8.4566 C.3         1 ACR       0.0341
     16 C5B       -19.5107   -7.6802   -7.5013 C.3         1 ACR       0.1038
     17 C6B       -19.8082   -9.0177   -8.2278 C.3         1 ACR      -0.0332
     18 N4B       -19.9717   -6.2053   -9.5169 N.4         1 ACR       0.2433
     19 O2B       -17.1295   -4.6368   -5.7237 O.3         1 ACR      -0.3840
     20 O3B       -17.9790   -4.3425   -8.4786 O.3         1 ACR      -0.3834
     21 O5B       -18.5305   -7.9882   -6.4794 O.3         1 ACR      -0.3401
     22 C1C       -21.9323   -5.2030   -3.0093 C.3         1 ACR       0.1884
     23 C2C       -21.3309   -4.4241   -4.2157 C.3         1 ACR       0.1341
     24 C3C       -19.7878   -4.2403   -4.0774 C.3         1 ACR       0.1144
     25 C4C       -19.0822   -5.5817   -3.7237 C.3         1 ACR       0.1184
     26 C5C       -19.7557   -6.2754   -2.5019 C.3         1 ACR       0.1134
     27 C6C       -19.4088   -5.6670   -1.1132 C.3         1 ACR       0.0730
     28 O2C       -21.6319   -5.1272   -5.4229 O.3         1 ACR      -0.3841
     29 O3C       -19.4971   -3.2315   -3.1107 O.3         1 ACR      -0.3864
     30 O4C       -19.2416   -6.4835   -4.8409 O.3         1 ACR      -0.3401
     31 O5C       -21.1798   -6.3989   -2.7082 O.3         1 ACR      -0.3405
     32 O6C       -19.9702   -6.4482   -0.0584 O.3         1 ACR      -0.3924
     33 C1D       -24.0233   -9.6590   -3.3338 C.3         1 ACR       0.1854
     34 C2D       -23.8500   -8.9908   -4.7268 C.3         1 ACR       0.1339
     35 C3D       -23.2099   -7.5830   -4.5903 C.3         1 ACR       0.1144
     36 C4D       -23.9378   -6.7157   -3.5165 C.3         1 ACR       0.1184
     37 C5D       -24.1963   -7.4975   -2.1849 C.3         1 ACR       0.1134
     38 C6D       -25.1923   -6.7771   -1.2350 C.3         1 ACR       0.0730
     39 O1D       -22.7758  -10.0733   -2.7717 O.3         1 ACR      -0.3649
     40 O2D       -23.0457   -9.8128   -5.5752 O.3         1 ACR      -0.3841
     41 O3D       -23.2428   -6.9181   -5.8512 O.3         1 ACR      -0.3864
     42 O4D       -23.3315   -5.4191   -3.3033 O.3         1 ACR      -0.3401
     43 O5D       -24.7639   -8.8018   -2.4417 O.3         1 ACR      -0.3407
     44 O6D       -24.9962   -5.3615   -1.1942 O.3         1 ACR      -0.3924
     45 H1        -18.7370   -5.3989  -11.0350 H           1 ACR       0.0950
     46 H2        -20.2136   -5.7194  -12.9520 H           1 ACR       0.0694
     47 H3        -22.1561   -7.0496  -11.0100 H           1 ACR       0.0671
     48 H4        -20.9236   -8.3320  -13.4752 H           1 ACR       0.0769
     49 H5        -19.5346  -10.4859  -12.6136 H           1 ACR       0.0706
     50 H6        -18.6721  -10.1959  -11.1102 H           1 ACR       0.0706
     51 H7        -17.9610   -7.5979  -11.0963 H           1 ACR       0.0299
     52 H8        -20.7661   -3.9200  -12.2686 H           1 ACR       0.2103
     53 H9        -23.2314   -7.4621  -13.0289 H           1 ACR       0.2102
     54 H10       -21.7840  -10.0302  -12.6901 H           1 ACR       0.2130
     55 H11       -17.9912   -9.5521  -13.7531 H           1 ACR       0.2125
     56 H12       -17.3284   -7.2632   -4.9895 H           1 ACR       0.0938
     57 H13       -16.6231   -6.1312   -7.0248 H           1 ACR       0.0672
     58 H14       -19.4252   -4.8828   -7.1488 H           1 ACR       0.0679
     59 H15       -18.0640   -6.9679   -8.9181 H           1 ACR       0.0903
     60 H16       -20.4429   -7.3406   -7.0341 H           1 ACR       0.0652
     61 H17       -20.1467   -9.7684   -7.5062 H           1 ACR       0.0257
     62 H18       -18.9057   -9.3935   -8.7210 H           1 ACR       0.0257
     63 H19       -20.5938   -8.8923   -8.9752 H           1 ACR       0.0257
     64 H20       -20.7363   -6.8811   -9.4741 H           1 ACR       0.2029
     65 H21       -20.3733   -5.2941   -9.2733 H           1 ACR       0.2029
     66 H22       -17.1967   -3.8591   -6.3156 H           1 ACR       0.2101
     67 H23       -17.0251   -4.5623   -8.5282 H           1 ACR       0.2102
     68 H24       -21.9080   -4.5539   -2.1346 H           1 ACR       0.0938
     69 H25       -21.8044   -3.4334   -4.2794 H           1 ACR       0.0671
     70 H26       -19.3867   -3.8779   -5.0271 H           1 ACR       0.0648
     71 H27       -18.0306   -5.3945   -3.5014 H           1 ACR       0.0651
     72 H28       -19.3774   -7.3030   -2.4646 H           1 ACR       0.0647
     73 H29       -19.7832   -4.6503   -1.0095 H           1 ACR       0.0584
     74 H30       -18.3251   -5.6487   -0.9745 H           1 ACR       0.0584
     75 H31       -21.6256   -4.4558   -6.1416 H           1 ACR       0.2101
     76 H32       -18.5383   -3.0571   -3.1969 H           1 ACR       0.2100
     77 H33       -20.9406   -6.3262   -0.1309 H           1 ACR       0.2095
     78 H34       -24.6232  -10.5629   -3.4677 H           1 ACR       0.0935
     79 H35       -24.8303   -8.8924   -5.1980 H           1 ACR       0.0671
     80 H36       -22.1630   -7.7202   -4.3299 H           1 ACR       0.0648
     81 H37       -24.9211   -6.4918   -3.9322 H           1 ACR       0.0651
     82 H38       -23.2665   -7.6305   -1.6258 H           1 ACR       0.0647
     83 H39       -25.0708   -7.1663   -0.2156 H           1 ACR       0.0584
     84 H40       -26.2230   -6.9728   -1.5540 H           1 ACR       0.0584
     85 H41       -22.2366   -9.2588   -2.6933 H           1 ACR       0.2126
     86 H42       -23.5824  -10.6179   -5.7478 H           1 ACR       0.2101
     87 H43       -24.1932   -6.8401   -6.0829 H           1 ACR       0.2100
     88 H44       -24.1047   -5.2359   -0.8050 H           1 ACR       0.2095
@<TRIPOS>BOND
     1     1     2   1
     2     1     7   1
     3    18     1   1
     4     2     3   1
     5     2     8   1
     6     3     4   1
     7     3     9   1
     8     5     4   1
     9     4    10   1
    10     5     6   1
    11     7     5   2
    12     6    11   1
    13    12    13   1
    14    12    21   1
    15    30    12   1
    16    13    14   1
    17    13    19   1
    18    14    15   1
    19    14    20   1
    20    16    15   1
    21    15    18   1
    22    16    17   1
    23    21    16   1
    24    22    23   1
    25    22    31   1
    26    42    22   1
    27    23    24   1
    28    23    28   1
    29    24    25   1
    30    24    29   1
    31    26    25   1
    32    25    30   1
    33    26    27   1
    34    31    26   1
    35    27    32   1
    36    34    33   1
    37    33    39   1
    38    33    43   1
    39    35    34   1
    40    34    40   1
    41    36    35   1
    42    35    41   1
    43    36    37   1
    44    36    42   1
    45    37    38   1
    46    37    43   1
    47    38    44   1
    48     1    45   1
    49     2    46   1
    50     3    47   1
    51     4    48   1
    52     6    49   1
    53     6    50   1
    54     7    51   1
    55     8    52   1
    56     9    53   1
    57    10    54   1
    58    11    55   1
    59    12    56   1
    60    13    57   1
    61    14    58   1
    62    15    59   1
    63    16    60   1
    64    17    61   1
    65    17    62   1
    66    17    63   1
    67    18    64   1
    68    18    65   1
    69    19    66   1
    70    20    67   1
    71    22    68   1
    72    23    69   1
    73    24    70   1
    74    25    71   1
    75    26    72   1
    76    27    73   1
    77    27    74   1
    78    28    75   1
    79    29    76   1
    80    32    77   1
    81    33    78   1
    82    34    79   1
    83    35    80   1
    84    36    81   1
    85    37    82   1
    86    38    83   1
    87    38    84   1
    88    39    85   1
    89    40    86   1
    90    41    87   1
    91    44    88   1
@<TRIPOS>SUBSTRUCTURE
     1  ACR      1

