@<TRIPOS>MOLECULE
2qmj_ligand_020
    88    91
SMALL
GAST_HUCK
****
This file was generated by PARSER (from files_GN.cpp)

@<TRIPOS>ATOM
      1 C1A       -19.6764   -5.7851  -10.9455 C.3         1 ACR       0.0141
      2 C2A       -20.9153   -5.4933  -11.8410 C.3         1 ACR       0.1303
      3 C3A       -21.7656   -6.7832  -11.9888 C.3         1 ACR       0.1215
      4 C4A       -20.8946   -7.9654  -12.5247 C.3         1 ACR       0.1112
      5 C5A       -19.4688   -7.9624  -12.1334 C.2         1 ACR      -0.0200
      6 C6A       -18.5921   -9.0452  -12.5944 C.3         1 ACR       0.0719
      7 C7A       -18.9236   -6.9093  -11.4849 C.2         1 ACR      -0.0543
      8 O2A       -21.6582   -4.3906  -11.3353 O.3         1 ACR      -0.3821
      9 O3A       -22.8777   -6.5485  -12.8541 O.3         1 ACR      -0.3843
     10 O4A       -21.5482   -9.1733  -12.1207 O.3         1 ACR      -0.3780
     11 O6A       -19.0836  -10.3308  -12.2235 O.3         1 ACR      -0.3839
     12 C1B       -17.6184   -6.9542   -5.9717 C.3         1 ACR       0.1886
     13 C2B       -17.5975   -5.5028   -6.5294 C.3         1 ACR       0.1370
     14 C3B       -18.8357   -5.2391   -7.4338 C.3         1 ACR       0.1304
     15 C4B       -18.9009   -6.3056   -8.5655 C.3         1 ACR       0.0341
     16 C5B       -18.9727   -7.7160   -7.8932 C.3         1 ACR       0.1038
     17 C6B       -18.9976   -8.8931   -8.8929 C.3         1 ACR      -0.0332
     18 N4B       -20.0300   -6.0337   -9.5111 N.4         1 ACR       0.2433
     19 O2B       -17.5196   -4.5557   -5.4665 O.3         1 ACR      -0.3840
     20 O3B       -18.7570   -3.9314   -7.9958 O.3         1 ACR      -0.3834
     21 O5B       -17.8126   -7.9100   -7.0406 O.3         1 ACR      -0.3401
     22 C1C       -16.4632   -7.4131   -1.3001 C.3         1 ACR       0.1884
     23 C2C       -17.0284   -8.7584   -1.8422 C.3         1 ACR       0.1341
     24 C3C       -17.3835   -8.6192   -3.3444 C.3         1 ACR       0.1144
     25 C4C       -18.3492   -7.4176   -3.5830 C.3         1 ACR       0.1184
     26 C5C       -17.8851   -6.1241   -2.8319 C.3         1 ACR       0.1134
     27 C6C       -19.0156   -5.0644   -2.7461 C.3         1 ACR       0.0730
     28 O2C       -16.1345   -9.8461   -1.6189 O.3         1 ACR      -0.3841
     29 O3C       -17.9881   -9.8263   -3.8010 O.3         1 ACR      -0.3864
     30 O4C       -18.6577   -7.1647   -4.9799 O.3         1 ACR      -0.3401
     31 O5C       -17.4790   -6.4055   -1.4695 O.3         1 ACR      -0.3405
     32 O6C       -18.5031   -3.8034   -2.3183 O.3         1 ACR      -0.3924
     33 C1D       -11.9048   -5.9906   -0.7373 C.3         1 ACR       0.1854
     34 C2D       -12.4916   -5.5515   -2.1047 C.3         1 ACR       0.1339
     35 C3D       -13.0565   -6.7716   -2.8888 C.3         1 ACR       0.1144
     36 C4D       -14.0137   -7.6348   -2.0078 C.3         1 ACR       0.1184
     37 C5D       -13.3657   -7.9624   -0.6205 C.3         1 ACR       0.1134
     38 C6D       -12.3140   -9.1074   -0.6388 C.3         1 ACR       0.0730
     39 O1D       -11.5533   -4.8656    0.0658 O.3         1 ACR      -0.3649
     40 O2D       -13.5378   -4.5966   -1.9165 O.3         1 ACR      -0.3841
     41 O3D       -11.9839   -7.5594   -3.4074 O.3         1 ACR      -0.3864
     42 O4D       -15.2504   -6.8930   -1.9009 O.3         1 ACR      -0.3401
     43 O5D       -12.8537   -6.7717    0.0174 O.3         1 ACR      -0.3407
     44 O6D       -12.8796  -10.3278   -1.1066 O.3         1 ACR      -0.3924
     45 H1        -19.0464   -4.8923  -10.9886 H           1 ACR       0.0950
     46 H2        -20.5737   -5.1933  -12.8382 H           1 ACR       0.0694
     47 H3        -22.1719   -7.0395  -11.0057 H           1 ACR       0.0671
     48 H4        -20.9245   -7.9298  -13.6195 H           1 ACR       0.0769
     49 H5        -17.5804   -8.9827  -12.1813 H           1 ACR       0.0706
     50 H6        -18.4925   -8.9949  -13.6802 H           1 ACR       0.0706
     51 H7        -17.9422   -6.8965  -11.3209 H           1 ACR       0.0299
     52 H8        -22.4410   -4.7810  -10.9043 H           1 ACR       0.2103
     53 H9        -23.3074   -7.4250  -12.9696 H           1 ACR       0.2102
     54 H10       -21.5526   -9.7462  -12.9123 H           1 ACR       0.2130
     55 H11       -19.7385  -10.5541  -12.9150 H           1 ACR       0.2125
     56 H12       -16.6243   -7.1474   -5.5564 H           1 ACR       0.0938
     57 H13       -16.6907   -5.3852   -7.1349 H           1 ACR       0.0672
     58 H14       -19.7472   -5.2826   -6.8282 H           1 ACR       0.0679
     59 H15       -17.9443   -6.2557   -9.0958 H           1 ACR       0.0903
     60 H16       -19.8838   -7.7808   -7.2905 H           1 ACR       0.0652
     61 H17       -18.9779   -9.8351   -8.3475 H           1 ACR       0.0257
     62 H18       -18.1326   -8.8575   -9.5554 H           1 ACR       0.0257
     63 H19       -19.9052   -8.8720   -9.4965 H           1 ACR       0.0257
     64 H20       -20.6700   -6.8284   -9.4817 H           1 ACR       0.2029
     65 H21       -20.5482   -5.2210   -9.1594 H           1 ACR       0.2029
     66 H22       -17.3015   -3.7161   -5.9013 H           1 ACR       0.2101
     67 H23       -19.0082   -3.3194   -7.2755 H           1 ACR       0.2102
     68 H24       -16.3096   -7.5105   -0.2242 H           1 ACR       0.0938
     69 H25       -17.9454   -8.9915   -1.2873 H           1 ACR       0.0671
     70 H26       -16.4591   -8.4815   -3.8962 H           1 ACR       0.0648
     71 H27       -19.3054   -7.7024   -3.1371 H           1 ACR       0.0651
     72 H28       -17.0379   -5.6835   -3.3684 H           1 ACR       0.0647
     73 H29       -19.7760   -5.3860   -2.0339 H           1 ACR       0.0584
     74 H30       -19.5002   -4.9247   -3.7155 H           1 ACR       0.0584
     75 H31       -16.0553   -9.9264   -0.6450 H           1 ACR       0.2101
     76 H32       -18.0238   -9.7509   -4.7770 H           1 ACR       0.2100
     77 H33       -17.9491   -3.4882   -3.0632 H           1 ACR       0.2095
     78 H34       -10.9848   -6.5601   -0.8933 H           1 ACR       0.0935
     79 H35       -11.7082   -5.0690   -2.6951 H           1 ACR       0.0671
     80 H36       -13.6027   -6.4023   -3.7609 H           1 ACR       0.0648
     81 H37       -14.2218   -8.5584   -2.5516 H           1 ACR       0.0651
     82 H38       -14.1522   -8.3196    0.0426 H           1 ACR       0.0647
     83 H39       -11.9384   -9.2678    0.3739 H           1 ACR       0.0584
     84 H40       -11.4661   -8.8618   -1.2753 H           1 ACR       0.0584
     85 H41       -12.4019   -4.4192    0.2687 H           1 ACR       0.2126
     86 H42       -13.1283   -3.7228   -2.0899 H           1 ACR       0.2101
     87 H43       -12.3797   -8.0886   -4.1329 H           1 ACR       0.2100
     88 H44       -13.5243  -10.5945   -0.4175 H           1 ACR       0.2095
@<TRIPOS>BOND
     1     1     2   1
     2     1     7   1
     3    18     1   1
     4     2     3   1
     5     2     8   1
     6     3     4   1
     7     3     9   1
     8     5     4   1
     9     4    10   1
    10     5     6   1
    11     7     5   2
    12     6    11   1
    13    12    13   1
    14    12    21   1
    15    30    12   1
    16    13    14   1
    17    13    19   1
    18    14    15   1
    19    14    20   1
    20    16    15   1
    21    15    18   1
    22    16    17   1
    23    21    16   1
    24    22    23   1
    25    22    31   1
    26    42    22   1
    27    23    24   1
    28    23    28   1
    29    24    25   1
    30    24    29   1
    31    26    25   1
    32    25    30   1
    33    26    27   1
    34    31    26   1
    35    27    32   1
    36    34    33   1
    37    33    39   1
    38    33    43   1
    39    35    34   1
    40    34    40   1
    41    36    35   1
    42    35    41   1
    43    36    37   1
    44    36    42   1
    45    37    38   1
    46    37    43   1
    47    38    44   1
    48     1    45   1
    49     2    46   1
    50     3    47   1
    51     4    48   1
    52     6    49   1
    53     6    50   1
    54     7    51   1
    55     8    52   1
    56     9    53   1
    57    10    54   1
    58    11    55   1
    59    12    56   1
    60    13    57   1
    61    14    58   1
    62    15    59   1
    63    16    60   1
    64    17    61   1
    65    17    62   1
    66    17    63   1
    67    18    64   1
    68    18    65   1
    69    19    66   1
    70    20    67   1
    71    22    68   1
    72    23    69   1
    73    24    70   1
    74    25    71   1
    75    26    72   1
    76    27    73   1
    77    27    74   1
    78    28    75   1
    79    29    76   1
    80    32    77   1
    81    33    78   1
    82    34    79   1
    83    35    80   1
    84    36    81   1
    85    37    82   1
    86    38    83   1
    87    38    84   1
    88    39    85   1
    89    40    86   1
    90    41    87   1
    91    44    88   1
@<TRIPOS>SUBSTRUCTURE
     1  ACR      1

