@<TRIPOS>MOLECULE
2qmj_ligand_045
    88    91
SMALL
GAST_HUCK
****
This file was generated by PARSER (from files_GN.cpp)

@<TRIPOS>ATOM
      1 C1A       -19.6196   -6.2427  -10.5664 C.3         1 ACR       0.0141
      2 C2A       -20.7122   -5.8120  -11.5946 C.3         1 ACR       0.1303
      3 C3A       -21.7094   -6.9707  -11.8465 C.3         1 ACR       0.1215
      4 C4A       -20.9459   -8.2453  -12.3256 C.3         1 ACR       0.1112
      5 C5A       -19.6354   -8.4800  -11.6889 C.2         1 ACR      -0.0200
      6 C6A       -18.9037   -9.7196  -11.9606 C.3         1 ACR       0.0719
      7 C7A       -19.0438   -7.5409  -10.9178 C.2         1 ACR      -0.0543
      8 O2A       -21.3686   -4.6122  -11.1818 O.3         1 ACR      -0.3821
      9 O3A       -22.6798   -6.5770  -12.8184 O.3         1 ACR      -0.3843
     10 O4A       -21.8231   -9.3604  -12.1347 O.3         1 ACR      -0.3780
     11 O6A       -17.7508   -9.4686  -12.7593 O.3         1 ACR      -0.3839
     12 C1B       -18.1977   -5.9767   -5.2713 C.3         1 ACR       0.1886
     13 C2B       -17.2671   -5.9149   -6.5112 C.3         1 ACR       0.1370
     14 C3B       -18.0440   -5.6442   -7.8286 C.3         1 ACR       0.1304
     15 C4B       -19.2844   -6.5770   -7.9949 C.3         1 ACR       0.0341
     16 C5B       -20.1301   -6.5207   -6.6770 C.3         1 ACR       0.1038
     17 C6B       -21.3274   -7.4953   -6.6638 C.3         1 ACR      -0.0332
     18 N4B       -20.1512   -6.2469   -9.1683 N.4         1 ACR       0.2433
     19 O2B       -16.2363   -4.9451   -6.3261 O.3         1 ACR      -0.3840
     20 O3B       -17.1175   -5.8518   -8.8930 O.3         1 ACR      -0.3834
     21 O5B       -19.3171   -6.8493   -5.5275 O.3         1 ACR      -0.3401
     22 C1C       -17.3097   -4.6384   -0.8234 C.3         1 ACR       0.1884
     23 C2C       -18.8455   -4.8019   -0.9807 C.3         1 ACR       0.1341
     24 C3C       -19.1998   -5.1843   -2.4461 C.3         1 ACR       0.1144
     25 C4C       -18.5485   -4.2173   -3.4873 C.3         1 ACR       0.1184
     26 C5C       -17.0598   -3.8566   -3.1329 C.3         1 ACR       0.1134
     27 C6C       -16.5503   -2.6074   -3.8829 C.3         1 ACR       0.0730
     28 O2C       -19.3204   -5.7919   -0.0678 O.3         1 ACR      -0.3841
     29 O3C       -20.6206   -5.2093   -2.6211 O.3         1 ACR      -0.3864
     30 O4C       -18.6774   -4.6674   -4.8664 O.3         1 ACR      -0.3401
     31 O5C       -16.8567   -3.6069   -1.7235 O.3         1 ACR      -0.3405
     32 O6C       -16.4795   -1.4590   -3.0262 O.3         1 ACR      -0.3924
     33 C1D       -14.0023   -7.0365   -3.2136 C.3         1 ACR       0.1854
     34 C2D       -14.9295   -7.9902   -2.4121 C.3         1 ACR       0.1339
     35 C3D       -14.9478   -7.5984   -0.9043 C.3         1 ACR       0.1144
     36 C4D       -15.2491   -6.0810   -0.7067 C.3         1 ACR       0.1184
     37 C5D       -14.3161   -5.2003   -1.6063 C.3         1 ACR       0.1134
     38 C6D       -12.8706   -4.9926   -1.0684 C.3         1 ACR       0.0730
     39 O1D       -14.1303   -7.2713   -4.6102 O.3         1 ACR      -0.3649
     40 O2D       -16.2482   -7.9488   -2.9566 O.3         1 ACR      -0.3841
     41 O3D       -13.7127   -7.9705   -0.2952 O.3         1 ACR      -0.3864
     42 O4D       -16.6511   -5.9120   -1.0392 O.3         1 ACR      -0.3401
     43 O5D       -14.3406   -5.6557   -2.9798 O.3         1 ACR      -0.3407
     44 O6D       -12.0584   -4.5052   -2.1327 O.3         1 ACR      -0.3924
     45 H1        -18.8415   -5.4798  -10.6405 H           1 ACR       0.0950
     46 H2        -20.2215   -5.5738  -12.5445 H           1 ACR       0.0694
     47 H3        -22.2392   -7.1892  -10.9158 H           1 ACR       0.0671
     48 H4        -20.7664   -8.1486  -13.4026 H           1 ACR       0.0769
     49 H5        -19.5084  -10.4603  -12.4841 H           1 ACR       0.0706
     50 H6        -18.5841  -10.1681  -11.0175 H           1 ACR       0.0706
     51 H7        -18.1534   -7.7446  -10.5264 H           1 ACR       0.0299
     52 H8        -22.2186   -4.8978  -10.7986 H           1 ACR       0.2103
     53 H9        -23.1724   -7.3941  -13.0451 H           1 ACR       0.2102
     54 H10       -21.7433   -9.8908  -12.9571 H           1 ACR       0.2130
     55 H11       -18.0859   -9.4522  -13.6803 H           1 ACR       0.2125
     56 H12       -17.6139   -6.4488   -4.4773 H           1 ACR       0.0938
     57 H13       -16.7778   -6.8886   -6.5980 H           1 ACR       0.0672
     58 H14       -18.3697   -4.5987   -7.8526 H           1 ACR       0.0679
     59 H15       -18.9219   -7.6028   -8.1090 H           1 ACR       0.0903
     60 H16       -20.5318   -5.5110   -6.5499 H           1 ACR       0.0652
     61 H17       -21.8186   -7.4736   -5.6875 H           1 ACR       0.0257
     62 H18       -20.9946   -8.5184   -6.8619 H           1 ACR       0.0257
     63 H19       -22.0651   -7.2107   -7.4159 H           1 ACR       0.0257
     64 H20       -20.9107   -6.9287   -9.1644 H           1 ACR       0.2029
     65 H21       -20.5710   -5.3342   -8.9783 H           1 ACR       0.2029
     66 H22       -16.6533   -4.0810   -6.5316 H           1 ACR       0.2101
     67 H23       -16.2321   -5.8123   -8.4763 H           1 ACR       0.2102
     68 H24       -17.1179   -4.2947    0.1993 H           1 ACR       0.0938
     69 H25       -19.3273   -3.8500   -0.7383 H           1 ACR       0.0671
     70 H26       -18.8505   -6.2100   -2.6086 H           1 ACR       0.0648
     71 H27       -19.1186   -3.2823   -3.4272 H           1 ACR       0.0651
     72 H28       -16.4308   -4.6984   -3.4252 H           1 ACR       0.0647
     73 H29       -17.2019   -2.3614   -4.7243 H           1 ACR       0.0584
     74 H30       -15.5459   -2.8009   -4.2819 H           1 ACR       0.0584
     75 H31       -20.2958   -5.7286   -0.1097 H           1 ACR       0.2101
     76 H32       -20.9259   -4.3050   -2.3925 H           1 ACR       0.2100
     77 H33       -16.1084   -0.7431   -3.5895 H           1 ACR       0.2095
     78 H34       -12.9614   -7.2103   -2.9435 H           1 ACR       0.0935
     79 H35       -14.5595   -9.0162   -2.5161 H           1 ACR       0.0671
     80 H36       -15.7241   -8.1877   -0.4003 H           1 ACR       0.0648
     81 H37       -15.0975   -5.8352    0.3507 H           1 ACR       0.0651
     82 H38       -14.7455   -4.1954   -1.6189 H           1 ACR       0.0647
     83 H39       -12.4353   -5.9201   -0.6919 H           1 ACR       0.0584
     84 H40       -12.8783   -4.2554   -0.2603 H           1 ACR       0.0584
     85 H41       -13.6556   -8.1163   -4.7724 H           1 ACR       0.2126
     86 H42       -16.7327   -8.6860   -2.5231 H           1 ACR       0.2101
     87 H43       -13.8409   -7.8273    0.6659 H           1 ACR       0.2100
     88 H44       -11.1436   -4.4931   -1.7823 H           1 ACR       0.2095
@<TRIPOS>BOND
     1     1     2   1
     2     1     7   1
     3    18     1   1
     4     2     3   1
     5     2     8   1
     6     3     4   1
     7     3     9   1
     8     5     4   1
     9     4    10   1
    10     5     6   1
    11     7     5   2
    12     6    11   1
    13    12    13   1
    14    12    21   1
    15    30    12   1
    16    13    14   1
    17    13    19   1
    18    14    15   1
    19    14    20   1
    20    16    15   1
    21    15    18   1
    22    16    17   1
    23    21    16   1
    24    22    23   1
    25    22    31   1
    26    42    22   1
    27    23    24   1
    28    23    28   1
    29    24    25   1
    30    24    29   1
    31    26    25   1
    32    25    30   1
    33    26    27   1
    34    31    26   1
    35    27    32   1
    36    34    33   1
    37    33    39   1
    38    33    43   1
    39    35    34   1
    40    34    40   1
    41    36    35   1
    42    35    41   1
    43    36    37   1
    44    36    42   1
    45    37    38   1
    46    37    43   1
    47    38    44   1
    48     1    45   1
    49     2    46   1
    50     3    47   1
    51     4    48   1
    52     6    49   1
    53     6    50   1
    54     7    51   1
    55     8    52   1
    56     9    53   1
    57    10    54   1
    58    11    55   1
    59    12    56   1
    60    13    57   1
    61    14    58   1
    62    15    59   1
    63    16    60   1
    64    17    61   1
    65    17    62   1
    66    17    63   1
    67    18    64   1
    68    18    65   1
    69    19    66   1
    70    20    67   1
    71    22    68   1
    72    23    69   1
    73    24    70   1
    74    25    71   1
    75    26    72   1
    76    27    73   1
    77    27    74   1
    78    28    75   1
    79    29    76   1
    80    32    77   1
    81    33    78   1
    82    34    79   1
    83    35    80   1
    84    36    81   1
    85    37    82   1
    86    38    83   1
    87    38    84   1
    88    39    85   1
    89    40    86   1
    90    41    87   1
    91    44    88   1
@<TRIPOS>SUBSTRUCTURE
     1  ACR      1

