@<TRIPOS>MOLECULE
2qmj_ligand_000
    88    91
SMALL
GAST_HUCK
****
This file was generated by PARSER (from files_GN.cpp)

@<TRIPOS>ATOM
      1 C1A       -19.6657   -6.1710  -10.7723 C.3         1 ACR       0.0141
      2 C2A       -20.7823   -5.7510  -11.7719 C.3         1 ACR       0.1303
      3 C3A       -21.7760   -6.9233  -11.9828 C.3         1 ACR       0.1215
      4 C4A       -21.0221   -8.2312  -12.3931 C.3         1 ACR       0.1112
      5 C5A       -19.6253   -8.3797  -11.9190 C.2         1 ACR      -0.0200
      6 C6A       -18.8561   -9.5582  -12.3065 C.3         1 ACR       0.0719
      7 C7A       -19.0075   -7.3874  -11.2378 C.2         1 ACR      -0.0543
      8 O2A       -21.4217   -4.5538  -11.3250 O.3         1 ACR      -0.3821
      9 O3A       -22.7377   -6.5635  -12.9736 O.3         1 ACR      -0.3843
     10 O4A       -21.7872   -9.3596  -11.9515 O.3         1 ACR      -0.3780
     11 O6A       -18.0812  -10.0621  -11.2218 O.3         1 ACR      -0.3839
     12 C1B       -19.1317   -6.7841   -5.2768 C.3         1 ACR       0.1886
     13 C2B       -18.6197   -5.4965   -5.9831 C.3         1 ACR       0.1370
     14 C3B       -19.3918   -5.2841   -7.3157 C.3         1 ACR       0.1304
     15 C4B       -19.3145   -6.5393   -8.2456 C.3         1 ACR       0.0341
     16 C5B       -19.7310   -7.8090   -7.4363 C.3         1 ACR       0.1038
     17 C6B       -19.4646   -9.1326   -8.1867 C.3         1 ACR      -0.0332
     18 N4B       -20.2331   -6.3573   -9.4086 N.4         1 ACR       0.2433
     19 O2B       -18.7765   -4.3658   -5.1229 O.3         1 ACR      -0.3840
     20 O3B       -18.8987   -4.1398   -8.0186 O.3         1 ACR      -0.3834
     21 O5B       -19.0269   -7.9037   -6.1791 O.3         1 ACR      -0.3401
     22 C1C       -23.2811   -9.0995   -2.6807 C.3         1 ACR       0.1884
     23 C2C       -21.8811   -9.7083   -2.9865 C.3         1 ACR       0.1341
     24 C3C       -20.8187   -8.6084   -3.2827 C.3         1 ACR       0.1144
     25 C4C       -21.3448   -7.6364   -4.3851 C.3         1 ACR       0.1184
     26 C5C       -22.6911   -7.0273   -3.8890 C.3         1 ACR       0.1134
     27 C6C       -23.3615   -6.0379   -4.8874 C.3         1 ACR       0.0730
     28 O2C       -21.4522  -10.5381   -1.9050 O.3         1 ACR      -0.3841
     29 O3C       -19.6025   -9.2527   -3.6705 O.3         1 ACR      -0.3864
     30 O4C       -20.4513   -6.5454   -4.7211 O.3         1 ACR      -0.3401
     31 O5C       -23.6391   -8.0813   -3.6355 O.3         1 ACR      -0.3405
     32 O6C       -24.0009   -4.9581   -4.1883 O.3         1 ACR      -0.3924
     33 C1D       -27.5108   -8.1884   -0.2643 C.3         1 ACR       0.1854
     34 C2D       -26.6396   -6.9060   -0.3096 C.3         1 ACR       0.1339
     35 C3D       -25.3458   -7.1492   -1.1357 C.3         1 ACR       0.1144
     36 C4D       -24.5842   -8.4134   -0.6267 C.3         1 ACR       0.1184
     37 C5D       -25.5539   -9.6452   -0.5431 C.3         1 ACR       0.1134
     38 C6D       -24.9219  -10.8926    0.1270 C.3         1 ACR       0.0730
     39 O1D       -28.0706   -8.4909   -1.5388 O.3         1 ACR      -0.3649
     40 O2D       -27.3712   -5.7860   -0.8272 O.3         1 ACR      -0.3841
     41 O3D       -24.4960   -6.0058   -1.0301 O.3         1 ACR      -0.3864
     42 O4D       -23.3284   -8.6289   -1.3189 O.3         1 ACR      -0.3401
     43 O5D       -26.7348   -9.3026    0.2283 O.3         1 ACR      -0.3407
     44 O6D       -23.8235  -11.4081   -0.6128 O.3         1 ACR      -0.3924
     45 H1        -18.9298   -5.3564  -10.7416 H           1 ACR       0.0950
     46 H2        -20.3290   -5.5132  -12.7397 H           1 ACR       0.0694
     47 H3        -22.3219   -7.0934  -11.0537 H           1 ACR       0.0671
     48 H4        -20.9805   -8.2754  -13.4895 H           1 ACR       0.0769
     49 H5        -18.1838   -9.3064  -13.1275 H           1 ACR       0.0706
     50 H6        -19.4972  -10.3701  -12.6418 H           1 ACR       0.0706
     51 H7        -18.0459   -7.4916  -11.0002 H           1 ACR       0.0299
     52 H8        -22.2435   -4.8416  -10.8751 H           1 ACR       0.2103
     53 H9        -23.2558   -7.3753  -13.1460 H           1 ACR       0.2102
     54 H10       -22.6002   -9.3534  -12.5059 H           1 ACR       0.2130
     55 H11       -17.1971   -9.6294  -11.3106 H           1 ACR       0.2125
     56 H12       -18.4643   -6.9806   -4.4398 H           1 ACR       0.0938
     57 H13       -17.5534   -5.6097   -6.2051 H           1 ACR       0.0672
     58 H14       -20.4443   -5.0893   -7.0741 H           1 ACR       0.0679
     59 H15       -18.2674   -6.6570   -8.5697 H           1 ACR       0.0903
     60 H16       -20.8070   -7.7536   -7.2470 H           1 ACR       0.0652
     61 H17       -19.6974   -9.9805   -7.5415 H           1 ACR       0.0257
     62 H18       -18.4120   -9.2013   -8.4803 H           1 ACR       0.0257
     63 H19       -20.0891   -9.2083   -9.0763 H           1 ACR       0.0257
     64 H20       -20.8475   -7.1658   -9.4470 H           1 ACR       0.2029
     65 H21       -20.8205   -5.5529   -9.1971 H           1 ACR       0.2029
     66 H22       -18.6602   -3.5736   -5.6963 H           1 ACR       0.2101
     67 H23       -18.9353   -3.4016   -7.3761 H           1 ACR       0.2102
     68 H24       -24.0052   -9.9085   -2.8058 H           1 ACR       0.0938
     69 H25       -21.9687  -10.3456   -3.8736 H           1 ACR       0.0671
     70 H26       -20.6101   -8.0429   -2.3606 H           1 ACR       0.0648
     71 H27       -21.5606   -8.2213   -5.2831 H           1 ACR       0.0651
     72 H28       -22.4900   -6.4775   -2.9633 H           1 ACR       0.0647
     73 H29       -24.1100   -6.5586   -5.4999 H           1 ACR       0.0584
     74 H30       -22.6275   -5.5899   -5.5713 H           1 ACR       0.0584
     75 H31       -20.6650  -11.0188   -2.2361 H           1 ACR       0.2101
     76 H32       -19.7969   -9.6732   -4.5364 H           1 ACR       0.2100
     77 H33       -24.8174   -4.7497   -4.7050 H           1 ACR       0.2095
     78 H34       -28.3359   -8.0236    0.4302 H           1 ACR       0.0935
     79 H35       -26.3561   -6.6466    0.7172 H           1 ACR       0.0671
     80 H36       -25.6325   -7.2781   -2.1830 H           1 ACR       0.0648
     81 H37       -24.2890   -8.1911    0.4012 H           1 ACR       0.0651
     82 H38       -25.8716   -9.9332   -1.5559 H           1 ACR       0.0647
     83 H39       -25.6726  -11.6800    0.2022 H           1 ACR       0.0584
     84 H40       -24.5825  -10.6444    1.1318 H           1 ACR       0.0584
     85 H41       -28.6146   -9.2868   -1.3897 H           1 ACR       0.2126
     86 H42       -27.8776   -6.1241   -1.5992 H           1 ACR       0.2101
     87 H43       -24.9554   -5.2932   -1.5259 H           1 ACR       0.2100
     88 H44       -24.2145  -11.7982   -1.4249 H           1 ACR       0.2095
@<TRIPOS>BOND
     1     1     2   1
     2     1     7   1
     3    18     1   1
     4     2     3   1
     5     2     8   1
     6     3     4   1
     7     3     9   1
     8     5     4   1
     9     4    10   1
    10     5     6   1
    11     7     5   2
    12     6    11   1
    13    12    13   1
    14    12    21   1
    15    30    12   1
    16    13    14   1
    17    13    19   1
    18    14    15   1
    19    14    20   1
    20    16    15   1
    21    15    18   1
    22    16    17   1
    23    21    16   1
    24    22    23   1
    25    22    31   1
    26    42    22   1
    27    23    24   1
    28    23    28   1
    29    24    25   1
    30    24    29   1
    31    26    25   1
    32    25    30   1
    33    26    27   1
    34    31    26   1
    35    27    32   1
    36    34    33   1
    37    33    39   1
    38    33    43   1
    39    35    34   1
    40    34    40   1
    41    36    35   1
    42    35    41   1
    43    36    37   1
    44    36    42   1
    45    37    38   1
    46    37    43   1
    47    38    44   1
    48     1    45   1
    49     2    46   1
    50     3    47   1
    51     4    48   1
    52     6    49   1
    53     6    50   1
    54     7    51   1
    55     8    52   1
    56     9    53   1
    57    10    54   1
    58    11    55   1
    59    12    56   1
    60    13    57   1
    61    14    58   1
    62    15    59   1
    63    16    60   1
    64    17    61   1
    65    17    62   1
    66    17    63   1
    67    18    64   1
    68    18    65   1
    69    19    66   1
    70    20    67   1
    71    22    68   1
    72    23    69   1
    73    24    70   1
    74    25    71   1
    75    26    72   1
    76    27    73   1
    77    27    74   1
    78    28    75   1
    79    29    76   1
    80    32    77   1
    81    33    78   1
    82    34    79   1
    83    35    80   1
    84    36    81   1
    85    37    82   1
    86    38    83   1
    87    38    84   1
    88    39    85   1
    89    40    86   1
    90    41    87   1
    91    44    88   1
@<TRIPOS>SUBSTRUCTURE
     1  ACR      1

