@<TRIPOS>MOLECULE
2qmj_ligand_040
    88    91
SMALL
GAST_HUCK
****
This file was generated by PARSER (from files_GN.cpp)

@<TRIPOS>ATOM
      1 C1A       -19.5896   -6.1886  -10.5534 C.3         1 ACR       0.0141
      2 C2A       -20.7483   -5.7683  -11.5103 C.3         1 ACR       0.1303
      3 C3A       -21.7605   -6.9326  -11.6830 C.3         1 ACR       0.1215
      4 C4A       -21.0350   -8.2293  -12.1634 C.3         1 ACR       0.1112
      5 C5A       -19.6749   -8.4373  -11.6370 C.2         1 ACR      -0.0200
      6 C6A       -18.9720   -9.6898  -11.9318 C.3         1 ACR       0.0719
      7 C7A       -19.0200   -7.4725  -10.9531 C.2         1 ACR      -0.0543
      8 O2A       -21.3698   -4.5591  -11.0690 O.3         1 ACR      -0.3821
      9 O3A       -22.7745   -6.5505  -12.6124 O.3         1 ACR      -0.3843
     10 O4A       -21.8610   -9.3496  -11.8388 O.3         1 ACR      -0.3780
     11 O6A       -17.7971   -9.4584  -12.7091 O.3         1 ACR      -0.3839
     12 C1B       -18.1340   -6.1159   -5.2233 C.3         1 ACR       0.1886
     13 C2B       -17.3352   -5.5060   -6.4068 C.3         1 ACR       0.1370
     14 C3B       -18.3176   -5.1753   -7.5608 C.3         1 ACR       0.1304
     15 C4B       -19.0268   -6.4783   -8.0423 C.3         1 ACR       0.0341
     16 C5B       -19.6993   -7.1802   -6.8160 C.3         1 ACR       0.1038
     17 C6B       -20.1848   -8.6150   -7.1421 C.3         1 ACR      -0.0332
     18 N4B       -20.0335   -6.2173   -9.1224 N.4         1 ACR       0.2433
     19 O2B       -16.5342   -4.3966   -5.9991 O.3         1 ACR      -0.3840
     20 O3B       -17.6214   -4.5266   -8.6143 O.3         1 ACR      -0.3834
     21 O5B       -18.7792   -7.3177   -5.7012 O.3         1 ACR      -0.3401
     22 C1C       -19.6795   -3.2435   -1.4693 C.3         1 ACR       0.1884
     23 C2C       -20.7734   -3.6977   -2.4740 C.3         1 ACR       0.1341
     24 C3C       -20.3485   -3.3164   -3.9174 C.3         1 ACR       0.1144
     25 C4C       -18.9425   -3.8784   -4.2797 C.3         1 ACR       0.1184
     26 C5C       -17.8860   -3.5972   -3.1458 C.3         1 ACR       0.1134
     27 C6C       -17.0696   -2.2682   -3.2712 C.3         1 ACR       0.0730
     28 O2C       -21.0168   -5.1046   -2.4232 O.3         1 ACR      -0.3841
     29 O3C       -20.3667   -1.9002   -4.0765 O.3         1 ACR      -0.3864
     30 O4C       -19.1372   -5.2862   -4.5823 O.3         1 ACR      -0.3401
     31 O5C       -18.3969   -3.8104   -1.8040 O.3         1 ACR      -0.3405
     32 O6C       -17.4210   -1.2320   -2.3582 O.3         1 ACR      -0.3924
     33 C1D       -20.4105   -6.0958    3.1839 C.3         1 ACR       0.1854
     34 C2D       -19.3952   -6.5245    2.0912 C.3         1 ACR       0.1339
     35 C3D       -19.0036   -5.3201    1.1917 C.3         1 ACR       0.1144
     36 C4D       -20.2699   -4.6052    0.6296 C.3         1 ACR       0.1184
     37 C5D       -21.2195   -4.2427    1.8148 C.3         1 ACR       0.1134
     38 C6D       -22.5649   -3.6104    1.3626 C.3         1 ACR       0.0730
     39 O1D       -19.8081   -5.2825    4.1921 O.3         1 ACR      -0.3649
     40 O2D       -18.2411   -7.1098    2.6997 O.3         1 ACR      -0.3841
     41 O3D       -18.1659   -5.8217    0.1526 O.3         1 ACR      -0.3864
     42 O4D       -19.9762   -3.3742   -0.0627 O.3         1 ACR      -0.3401
     43 O5D       -21.5410   -5.4169    2.6007 O.3         1 ACR      -0.3407
     44 O6D       -23.2886   -4.4493    0.4621 O.3         1 ACR      -0.3924
     45 H1        -18.8190   -5.4273  -10.6721 H           1 ACR       0.0950
     46 H2        -20.3221   -5.5438  -12.4939 H           1 ACR       0.0694
     47 H3        -22.2441   -7.1189  -10.7192 H           1 ACR       0.0671
     48 H4        -20.9447   -8.1921  -13.2534 H           1 ACR       0.0769
     49 H5        -19.5944  -10.3986  -12.4880 H           1 ACR       0.0706
     50 H6        -18.6831  -10.1757  -10.9946 H           1 ACR       0.0706
     51 H7        -18.0833   -7.6493  -10.6662 H           1 ACR       0.0299
     52 H8        -21.8507   -4.7884  -10.2498 H           1 ACR       0.2103
     53 H9        -23.2740   -7.3700  -12.8154 H           1 ACR       0.2102
     54 H10       -22.5897   -9.3398  -12.4939 H           1 ACR       0.2130
     55 H11       -18.1124   -9.4767  -13.6396 H           1 ACR       0.2125
     56 H12       -17.4274   -6.4474   -4.4590 H           1 ACR       0.0938
     57 H13       -16.6287   -6.2668   -6.7565 H           1 ACR       0.0672
     58 H14       -19.0760   -4.4671   -7.2163 H           1 ACR       0.0679
     59 H15       -18.2558   -7.1580   -8.4135 H           1 ACR       0.0903
     60 H16       -20.5645   -6.5959   -6.4872 H           1 ACR       0.0652
     61 H17       -20.5901   -9.0915   -6.2450 H           1 ACR       0.0257
     62 H18       -19.3536   -9.2244   -7.5083 H           1 ACR       0.0257
     63 H19       -20.9712   -8.6064   -7.9022 H           1 ACR       0.0257
     64 H20       -20.7548   -6.9344   -9.0627 H           1 ACR       0.2029
     65 H21       -20.4854   -5.3263   -8.9000 H           1 ACR       0.2029
     66 H22       -15.8442   -4.3188   -6.7007 H           1 ACR       0.2101
     67 H23       -16.8157   -5.0720   -8.7688 H           1 ACR       0.2102
     68 H24       -19.6031   -2.1635   -1.5677 H           1 ACR       0.0938
     69 H25       -21.7067   -3.1919   -2.2280 H           1 ACR       0.0671
     70 H26       -21.0941   -3.7069   -4.6184 H           1 ACR       0.0648
     71 H27       -18.6245   -3.3941   -5.2020 H           1 ACR       0.0651
     72 H28       -17.1170   -4.3636   -3.2510 H           1 ACR       0.0647
     73 H29       -17.1320   -1.8669   -4.2921 H           1 ACR       0.0584
     74 H30       -16.0130   -2.4868   -3.0794 H           1 ACR       0.0584
     75 H31       -20.1414   -5.5244   -2.4964 H           1 ACR       0.2101
     76 H32       -20.1334   -1.7504   -5.0133 H           1 ACR       0.2100
     77 H33       -18.0507   -0.6534   -2.8332 H           1 ACR       0.2095
     78 H34       -20.7921   -6.9917    3.6766 H           1 ACR       0.0935
     79 H35       -19.8691   -7.2923    1.4691 H           1 ACR       0.0671
     80 H36       -18.4143   -4.6140    1.7860 H           1 ACR       0.0648
     81 H37       -20.8174   -5.3013   -0.0097 H           1 ACR       0.0651
     82 H38       -20.7224   -3.5023    2.4566 H           1 ACR       0.0647
     83 H39       -22.4006   -2.6395    0.8907 H           1 ACR       0.0584
     84 H40       -23.1903   -3.4545    2.2457 H           1 ACR       0.0584
     85 H41       -19.1604   -5.8666    4.6404 H           1 ACR       0.2126
     86 H42       -17.7447   -7.5186    1.9618 H           1 ACR       0.2101
     87 H43       -17.8616   -5.0290   -0.3307 H           1 ACR       0.2100
     88 H44       -23.3342   -3.9609   -0.3888 H           1 ACR       0.2095
@<TRIPOS>BOND
     1     1     2   1
     2     1     7   1
     3    18     1   1
     4     2     3   1
     5     2     8   1
     6     3     4   1
     7     3     9   1
     8     5     4   1
     9     4    10   1
    10     5     6   1
    11     7     5   2
    12     6    11   1
    13    12    13   1
    14    12    21   1
    15    30    12   1
    16    13    14   1
    17    13    19   1
    18    14    15   1
    19    14    20   1
    20    16    15   1
    21    15    18   1
    22    16    17   1
    23    21    16   1
    24    22    23   1
    25    22    31   1
    26    42    22   1
    27    23    24   1
    28    23    28   1
    29    24    25   1
    30    24    29   1
    31    26    25   1
    32    25    30   1
    33    26    27   1
    34    31    26   1
    35    27    32   1
    36    34    33   1
    37    33    39   1
    38    33    43   1
    39    35    34   1
    40    34    40   1
    41    36    35   1
    42    35    41   1
    43    36    37   1
    44    36    42   1
    45    37    38   1
    46    37    43   1
    47    38    44   1
    48     1    45   1
    49     2    46   1
    50     3    47   1
    51     4    48   1
    52     6    49   1
    53     6    50   1
    54     7    51   1
    55     8    52   1
    56     9    53   1
    57    10    54   1
    58    11    55   1
    59    12    56   1
    60    13    57   1
    61    14    58   1
    62    15    59   1
    63    16    60   1
    64    17    61   1
    65    17    62   1
    66    17    63   1
    67    18    64   1
    68    18    65   1
    69    19    66   1
    70    20    67   1
    71    22    68   1
    72    23    69   1
    73    24    70   1
    74    25    71   1
    75    26    72   1
    76    27    73   1
    77    27    74   1
    78    28    75   1
    79    29    76   1
    80    32    77   1
    81    33    78   1
    82    34    79   1
    83    35    80   1
    84    36    81   1
    85    37    82   1
    86    38    83   1
    87    38    84   1
    88    39    85   1
    89    40    86   1
    90    41    87   1
    91    44    88   1
@<TRIPOS>SUBSTRUCTURE
     1  ACR      1

