@<TRIPOS>MOLECULE
2r23_ligand_019
    63    64
SMALL
GAST_HUCK
****
This file was generated by PARSER (from files_GN.cpp)

@<TRIPOS>ATOM
      1 OA1        -6.5580    3.5222   70.4625 O.co2       1 KO1      -0.5426
      2 C1         -7.7587    3.5421   71.0873 C.2         1 KO1       0.1068
      3 O1B        -8.1224    2.4310   71.7743 O.co2       1 KO1      -0.5426
      4 C2         -8.6436    4.7156   70.9249 C.3         1 KO1       0.2477
      5 O6         -7.9015    5.7877   71.5594 O.3         1 KO1      -0.3362
      6 C6         -8.4780    7.1237   71.5929 C.3         1 KO1       0.1171
      7 C7         -7.4389    8.0250   72.3368 C.3         1 KO1       0.1067
      8 C8         -7.7836    9.5299   72.4840 C.3         1 KO1       0.0727
      9 O8         -7.5208   10.2483   71.2784 O.3         1 KO1      -0.3924
     10 O7         -7.1474    7.4707   73.6214 O.3         1 KO1      -0.3869
     11 C5         -9.9276    7.1181   72.1945 C.3         1 KO1       0.1120
     12 O5         -9.9282    7.0471   73.6218 O.3         1 KO1      -0.3865
     13 C4        -10.7737    5.9646   71.5919 C.3         1 KO1       0.1139
     14 O4        -12.0474    5.8806   72.2432 O.3         1 KO1      -0.3865
     15 C3        -10.0314    4.6059   71.6423 C.3         1 KO1       0.1429
     16 O3         -9.9205    4.1796   72.9970 O.3         1 KO1      -0.3844
     17 O2         -8.7324    5.0359   69.5117 O.3         1 KO1      -0.3388
     18 C1         -9.6772    0.7232   67.0698 C.2         1 KO1       0.1043
     19 O1A        -8.7630    0.1074   67.8619 O.co2       1 KO1      -0.5426
     20 O1B       -10.0669    0.0511   65.9586 O.co2       1 KO1      -0.5426
     21 C2        -10.1360    2.1189   67.3116 C.3         1 KO1       0.2225
     22 C3         -9.3027    2.7943   68.4533 C.3         1 KO1       0.0360
     23 C4         -9.5777    4.3222   68.5650 C.3         1 KO1       0.0937
     24 C5         -9.3694    4.9838   67.1749 C.3         1 KO1       0.1098
     25 O5         -7.9864    4.9269   66.8195 O.3         1 KO1      -0.3866
     26 C6        -10.2486    4.2563   66.1073 C.3         1 KO1       0.1170
     27 O6         -9.9510    2.8446   66.0809 O.3         1 KO1      -0.3380
     28 C7        -10.1758    4.8529   64.6680 C.3         1 KO1       0.1067
     29 O7        -11.1808    4.2454   63.8399 O.3         1 KO1      -0.3869
     30 C8         -8.8257    4.7239   63.8943 C.3         1 KO1       0.0727
     31 O8         -8.4264    3.3591   63.7495 O.3         1 KO1      -0.3924
     32 O2        -11.5004    2.0649   67.7811 O.3         1 KO1      -0.3323
     33 C9        -12.5913    1.7950   66.8759 C.3         1 KO1       0.0783
     34 C10       -13.4796    0.7996   67.4512 C.2         1 KO1      -0.0639
     35 C11       -13.1114   -0.4735   67.6588 C.2         1 KO1      -0.1153
     36 H1         -8.5372    7.4861   70.5594 H           1 KO1       0.0649
     37 H2         -6.4952    7.9637   71.7859 H           1 KO1       0.0643
     38 H3         -7.1616    9.9587   73.2796 H           1 KO1       0.0584
     39 H4         -8.8305    9.6678   72.7706 H           1 KO1       0.0584
     40 H5         -7.5757   11.1964   71.5599 H           1 KO1       0.2095
     41 H6         -7.9226    7.6676   74.1904 H           1 KO1       0.2100
     42 H7        -10.4068    8.0645   71.9343 H           1 KO1       0.0647
     43 H8         -9.4397    6.2259   73.8466 H           1 KO1       0.2100
     44 H9        -10.9896    6.2193   70.5487 H           1 KO1       0.0647
     45 H10       -11.8534    5.6489   73.1734 H           1 KO1       0.2100
     46 H11       -10.6464    3.8570   71.1483 H           1 KO1       0.0667
     47 H12        -9.0106    4.4335   73.2998 H           1 KO1       0.2100
     48 H13        -8.2301    2.6627   68.2634 H           1 KO1       0.0336
     49 H14        -9.5428    2.3019   69.3961 H           1 KO1       0.0336
     50 H15       -10.6227    4.4710   68.8535 H           1 KO1       0.0623
     51 H16        -9.6691    6.0370   67.2284 H           1 KO1       0.0646
     52 H17        -7.5398    5.5058   67.4914 H           1 KO1       0.2100
     53 H18       -11.2915    4.3846   66.4204 H           1 KO1       0.0649
     54 H19       -10.4212    5.9206   64.7143 H           1 KO1       0.0643
     55 H20       -12.0248    4.3528   64.3414 H           1 KO1       0.2100
     56 H21        -8.0329    5.2685   64.4228 H           1 KO1       0.0584
     57 H22        -8.9377    5.1451   62.8907 H           1 KO1       0.0584
     58 H23        -9.1536    2.9208   63.2573 H           1 KO1       0.2095
     59 H24       -12.2647    1.4686   65.8855 H           1 KO1       0.0740
     60 H25       -13.1509    2.7315   66.7431 H           1 KO1       0.0740
     61 H26       -14.4068    1.0671   67.6857 H           1 KO1       0.0695
     62 H27       -13.7665   -1.1227   68.0401 H           1 KO1       0.0290
     63 H28       -12.1950   -0.7894   67.4262 H           1 KO1       0.0290
@<TRIPOS>BOND
     1     2     1  ar
     2     2     3  ar
     3     4     2   1
     4     4     5   1
     5     4    15   1
     6    17     4   1
     7     5     6   1
     8     6     7   1
     9     6    11   1
    10     7     8   1
    11     7    10   1
    12     8     9   1
    13    11    12   1
    14    13    11   1
    15    13    14   1
    16    15    13   1
    17    15    16   1
    18    23    17   1
    19    18    19  ar
    20    18    20  ar
    21    21    18   1
    22    22    21   1
    23    21    27   1
    24    21    32   1
    25    22    23   1
    26    23    24   1
    27    24    25   1
    28    24    26   1
    29    26    27   1
    30    26    28   1
    31    28    29   1
    32    28    30   1
    33    30    31   1
    34    32    33   1
    35    33    34   1
    36    34    35   2
    37     6    36   1
    38     7    37   1
    39     8    38   1
    40     8    39   1
    41     9    40   1
    42    10    41   1
    43    11    42   1
    44    12    43   1
    45    13    44   1
    46    14    45   1
    47    15    46   1
    48    16    47   1
    49    22    48   1
    50    22    49   1
    51    23    50   1
    52    24    51   1
    53    25    52   1
    54    26    53   1
    55    28    54   1
    56    29    55   1
    57    30    56   1
    58    30    57   1
    59    31    58   1
    60    33    59   1
    61    33    60   1
    62    34    61   1
    63    35    62   1
    64    35    63   1
@<TRIPOS>SUBSTRUCTURE
     1  KO1      2

