@<TRIPOS>MOLECULE
2r23_ligand_041
    63    64
SMALL
GAST_HUCK
****
This file was generated by PARSER (from files_GN.cpp)

@<TRIPOS>ATOM
      1 OA1        -4.6204    4.1865   68.6602 O.co2       1 KO1      -0.5426
      2 C1         -5.8518    4.5722   68.2560 C.2         1 KO1       0.1068
      3 O1B        -6.0033    5.8676   67.9016 O.co2       1 KO1      -0.5426
      4 C2         -6.9682    3.6014   68.0971 C.3         1 KO1       0.2477
      5 O6         -6.4707    2.2775   68.4493 O.3         1 KO1      -0.3362
      6 C6         -7.4217    1.1748   68.3774 C.3         1 KO1       0.1171
      7 C7         -6.8039   -0.1037   69.0315 C.3         1 KO1       0.1067
      8 C8         -7.8290   -1.2146   69.3963 C.3         1 KO1       0.0727
      9 O8         -8.8485   -0.7451   70.2812 O.3         1 KO1      -0.3924
     10 O7         -5.7744   -0.6790   68.2287 O.3         1 KO1      -0.3869
     11 C5         -7.9324    1.0025   66.9115 C.3         1 KO1       0.1120
     12 O5         -6.9413    0.4767   66.0245 O.3         1 KO1      -0.3865
     13 C4         -8.4595    2.3638   66.3763 C.3         1 KO1       0.1139
     14 O4         -8.7980    2.2543   64.9901 O.3         1 KO1      -0.3865
     15 C3         -7.4557    3.5338   66.6050 C.3         1 KO1       0.1429
     16 O3         -6.3511    3.4126   65.7058 O.3         1 KO1      -0.3844
     17 O2         -7.9911    3.9156   69.0853 O.3         1 KO1      -0.3388
     18 C1         -9.5907    8.2972   70.8926 C.2         1 KO1       0.1043
     19 O1A        -8.4200    8.4819   71.5412 O.co2       1 KO1      -0.5426
     20 O1B       -10.6024    9.1493   71.1733 O.co2       1 KO1      -0.5426
     21 C2         -9.7691    7.2486   69.8549 C.3         1 KO1       0.2225
     22 C3         -8.6102    6.1931   69.8331 C.3         1 KO1       0.0360
     23 C4         -8.9796    4.9629   68.9587 C.3         1 KO1       0.0937
     24 C5        -10.3462    4.3736   69.4128 C.3         1 KO1       0.1098
     25 O5        -10.2254    3.7726   70.7051 O.3         1 KO1      -0.3866
     26 C6        -11.4457    5.4759   69.4205 C.3         1 KO1       0.1170
     27 O6        -10.9984    6.5784   70.2469 O.3         1 KO1      -0.3380
     28 C7        -12.8551    5.0487   69.9269 C.3         1 KO1       0.1067
     29 O7        -12.8806    4.8532   71.3426 O.3         1 KO1      -0.3869
     30 C8        -13.4646    3.8237   69.2005 C.3         1 KO1       0.0727
     31 O8        -12.9260    2.5862   69.6558 O.3         1 KO1      -0.3924
     32 O2        -10.0039    7.8078   68.5418 O.3         1 KO1      -0.3323
     33 C9         -9.2425    8.9159   68.0312 C.3         1 KO1       0.0783
     34 C10        -9.9213   10.1666   68.3102 C.2         1 KO1      -0.0639
     35 C11       -11.1074   10.4840   67.7713 C.2         1 KO1      -0.1153
     36 H1         -8.2847    1.4399   68.9997 H           1 KO1       0.0649
     37 H2         -6.3184    0.2090   69.9655 H           1 KO1       0.0643
     38 H3         -7.3038   -2.0236   69.9121 H           1 KO1       0.0584
     39 H4         -8.2882   -1.6267   68.4978 H           1 KO1       0.0584
     40 H5         -9.4982   -0.2787   69.7060 H           1 KO1       0.2095
     41 H6         -6.2545   -1.1735   67.5199 H           1 KO1       0.2100
     42 H7         -8.7626    0.2903   66.9128 H           1 KO1       0.0647
     43 H8         -6.0967    0.9139   66.2656 H           1 KO1       0.2100
     44 H9         -9.3885    2.5970   66.9123 H           1 KO1       0.0647
     45 H10        -9.2151    3.1139   64.7635 H           1 KO1       0.2100
     46 H11        -7.9602    4.4672   66.3422 H           1 KO1       0.0667
     47 H12        -5.6235    3.0113   66.2303 H           1 KO1       0.2100
     48 H13        -8.4027    5.8496   70.8554 H           1 KO1       0.0336
     49 H14        -7.7020    6.6595   69.4500 H           1 KO1       0.0336
     50 H15        -9.0675    5.2923   67.9204 H           1 KO1       0.0623
     51 H16       -10.6321    3.5953   68.6981 H           1 KO1       0.0646
     52 H17        -9.6040    3.0249   70.5836 H           1 KO1       0.2100
     53 H18       -11.5806    5.8295   68.3934 H           1 KO1       0.0649
     54 H19       -13.5240    5.8943   69.7375 H           1 KO1       0.0643
     55 H20       -12.1857    4.1860   71.5320 H           1 KO1       0.2100
     56 H21       -13.2896    3.9026   68.1266 H           1 KO1       0.0584
     57 H22       -14.5479    3.8015   69.3627 H           1 KO1       0.0584
     58 H23       -13.3051    2.4456   70.5520 H           1 KO1       0.2095
     59 H24        -9.1564    8.7964   66.9404 H           1 KO1       0.0740
     60 H25        -8.2256    8.9390   68.4306 H           1 KO1       0.0740
     61 H26        -9.4868   10.8226   68.9150 H           1 KO1       0.0695
     62 H27       -11.5436   11.3448   68.0004 H           1 KO1       0.0290
     63 H28       -11.5781    9.8577   67.1625 H           1 KO1       0.0290
@<TRIPOS>BOND
     1     2     1  ar
     2     2     3  ar
     3     4     2   1
     4     4     5   1
     5     4    15   1
     6    17     4   1
     7     5     6   1
     8     6     7   1
     9     6    11   1
    10     7     8   1
    11     7    10   1
    12     8     9   1
    13    11    12   1
    14    13    11   1
    15    13    14   1
    16    15    13   1
    17    15    16   1
    18    23    17   1
    19    18    19  ar
    20    18    20  ar
    21    21    18   1
    22    22    21   1
    23    21    27   1
    24    21    32   1
    25    22    23   1
    26    23    24   1
    27    24    25   1
    28    24    26   1
    29    26    27   1
    30    26    28   1
    31    28    29   1
    32    28    30   1
    33    30    31   1
    34    32    33   1
    35    33    34   1
    36    34    35   2
    37     6    36   1
    38     7    37   1
    39     8    38   1
    40     8    39   1
    41     9    40   1
    42    10    41   1
    43    11    42   1
    44    12    43   1
    45    13    44   1
    46    14    45   1
    47    15    46   1
    48    16    47   1
    49    22    48   1
    50    22    49   1
    51    23    50   1
    52    24    51   1
    53    25    52   1
    54    26    53   1
    55    28    54   1
    56    29    55   1
    57    30    56   1
    58    30    57   1
    59    31    58   1
    60    33    59   1
    61    33    60   1
    62    34    61   1
    63    35    62   1
    64    35    63   1
@<TRIPOS>SUBSTRUCTURE
     1  KO1      2

