@<TRIPOS>MOLECULE
2r23_ligand_010
    63    64
SMALL
GAST_HUCK
****
This file was generated by PARSER (from files_GN.cpp)

@<TRIPOS>ATOM
      1 OA1       -10.1744    3.3135   63.6528 O.co2       1 KO1      -0.5426
      2 C1         -9.7584    2.5122   64.6590 C.2         1 KO1       0.1068
      3 O1B       -10.2910    1.2638   64.7076 O.co2       1 KO1      -0.5426
      4 C2         -8.7248    2.9827   65.6240 C.3         1 KO1       0.2477
      5 O6         -9.2263    4.2171   66.1943 O.3         1 KO1      -0.3362
      6 C6         -8.3669    4.9199   67.1260 C.3         1 KO1       0.1171
      7 C7         -9.2139    6.0411   67.8251 C.3         1 KO1       0.1067
      8 C8         -9.0907    6.0744   69.3741 C.3         1 KO1       0.0727
      9 O8         -7.9569    6.8151   69.8274 O.3         1 KO1      -0.3924
     10 O7         -8.9568    7.3503   67.3144 O.3         1 KO1      -0.3869
     11 C5         -7.0601    5.3517   66.3920 C.3         1 KO1       0.1120
     12 O5         -7.2908    6.3678   65.4165 O.3         1 KO1      -0.3865
     13 C4         -6.3902    4.1141   65.7271 C.3         1 KO1       0.1139
     14 O4         -5.2596    4.5235   64.9567 O.3         1 KO1      -0.3865
     15 C3         -7.3752    3.2529   64.8720 C.3         1 KO1       0.1429
     16 O3         -7.5474    3.8282   63.5761 O.3         1 KO1      -0.3844
     17 O2         -8.4321    1.9768   66.6281 O.3         1 KO1      -0.3388
     18 C1         -8.2737    0.1337   71.1404 C.2         1 KO1       0.1043
     19 O1A        -8.6171   -0.9408   71.8900 O.co2       1 KO1      -0.5426
     20 O1B        -7.0868    0.7323   71.4046 O.co2       1 KO1      -0.5426
     21 C2         -9.2022    0.7160   70.1393 C.3         1 KO1       0.2225
     22 C3         -8.3821    1.1756   68.8998 C.3         1 KO1       0.0360
     23 C4         -9.3015    1.6628   67.7449 C.3         1 KO1       0.0937
     24 C5        -10.3479    0.5643   67.4045 C.3         1 KO1       0.1098
     25 O5         -9.7294   -0.5011   66.6783 O.3         1 KO1      -0.3866
     26 C6        -11.0813    0.0474   68.6826 C.3         1 KO1       0.1170
     27 O6        -10.1391   -0.3073   69.7227 O.3         1 KO1      -0.3380
     28 C7        -12.0514   -1.1496   68.4182 C.3         1 KO1       0.1067
     29 O7        -13.0875   -1.1518   69.3980 O.3         1 KO1      -0.3869
     30 C8        -11.4005   -2.5622   68.3883 C.3         1 KO1       0.0727
     31 O8        -11.3132   -3.1243   69.6930 O.3         1 KO1      -0.3924
     32 O2         -9.8723    1.8774   70.6935 O.3         1 KO1      -0.3323
     33 C9        -10.8656    1.6764   71.7192 C.3         1 KO1       0.0783
     34 C10       -11.4984    2.9445   72.0239 C.2         1 KO1      -0.0639
     35 C11       -10.8400    3.9981   72.5190 C.2         1 KO1      -0.1153
     36 H1         -8.0686    4.2180   67.9057 H           1 KO1       0.0649
     37 H2        -10.2717    5.8411   67.6212 H           1 KO1       0.0643
     38 H3         -9.0272    5.0502   69.7658 H           1 KO1       0.0584
     39 H4         -9.9886    6.5410   69.7976 H           1 KO1       0.0584
     40 H5         -8.0466    6.8075   70.8045 H           1 KO1       0.2095
     41 H6         -9.1391    7.2994   66.3505 H           1 KO1       0.2100
     42 H7         -6.3654    5.7733   67.1279 H           1 KO1       0.0647
     43 H8         -8.1209    6.1172   64.9601 H           1 KO1       0.2100
     44 H9         -6.0024    3.4790   66.5279 H           1 KO1       0.0647
     45 H10        -5.6248    4.9352   64.1418 H           1 KO1       0.2100
     46 H11        -6.8887    2.2926   64.6791 H           1 KO1       0.0667
     47 H12        -7.9883    4.6933   63.7098 H           1 KO1       0.2100
     48 H13        -7.7737    0.3472   68.5346 H           1 KO1       0.0336
     49 H14        -7.7080    1.9828   69.1846 H           1 KO1       0.0336
     50 H15        -9.8360    2.5548   68.0810 H           1 KO1       0.0623
     51 H16       -11.1031    1.0117   66.7449 H           1 KO1       0.0646
     52 H17        -8.7699   -0.2960   66.6566 H           1 KO1       0.2100
     53 H18       -11.6912    0.8777   69.0461 H           1 KO1       0.0649
     54 H19       -12.5423   -0.9861   67.4567 H           1 KO1       0.0643
     55 H20       -12.6372   -1.2753   70.2592 H           1 KO1       0.2100
     56 H21       -10.4005   -2.5234   67.9602 H           1 KO1       0.0584
     57 H22       -12.0049   -3.2305   67.7700 H           1 KO1       0.0584
     58 H23       -10.4676   -3.6252   69.7116 H           1 KO1       0.2095
     59 H24       -10.4021    1.2795   72.6292 H           1 KO1       0.0740
     60 H25       -11.6272    0.9672   71.3845 H           1 KO1       0.0740
     61 H26       -12.4755    3.0397   71.8470 H           1 KO1       0.0695
     62 H27       -11.3296    4.8448   72.7028 H           1 KO1       0.0290
     63 H28        -9.8658    3.9542   72.7162 H           1 KO1       0.0290
@<TRIPOS>BOND
     1     2     1  ar
     2     2     3  ar
     3     4     2   1
     4     4     5   1
     5     4    15   1
     6    17     4   1
     7     5     6   1
     8     6     7   1
     9     6    11   1
    10     7     8   1
    11     7    10   1
    12     8     9   1
    13    11    12   1
    14    13    11   1
    15    13    14   1
    16    15    13   1
    17    15    16   1
    18    23    17   1
    19    18    19  ar
    20    18    20  ar
    21    21    18   1
    22    22    21   1
    23    21    27   1
    24    21    32   1
    25    22    23   1
    26    23    24   1
    27    24    25   1
    28    24    26   1
    29    26    27   1
    30    26    28   1
    31    28    29   1
    32    28    30   1
    33    30    31   1
    34    32    33   1
    35    33    34   1
    36    34    35   2
    37     6    36   1
    38     7    37   1
    39     8    38   1
    40     8    39   1
    41     9    40   1
    42    10    41   1
    43    11    42   1
    44    12    43   1
    45    13    44   1
    46    14    45   1
    47    15    46   1
    48    16    47   1
    49    22    48   1
    50    22    49   1
    51    23    50   1
    52    24    51   1
    53    25    52   1
    54    26    53   1
    55    28    54   1
    56    29    55   1
    57    30    56   1
    58    30    57   1
    59    31    58   1
    60    33    59   1
    61    33    60   1
    62    34    61   1
    63    35    62   1
    64    35    63   1
@<TRIPOS>SUBSTRUCTURE
     1  KO1      2

