@<TRIPOS>MOLECULE
2r23_ligand_013
    63    64
SMALL
GAST_HUCK
****
This file was generated by PARSER (from files_GN.cpp)

@<TRIPOS>ATOM
      1 OA1       -11.0852    4.6549   69.1816 O.co2       1 KO1      -0.5426
      2 C1        -11.4827    3.3699   69.0362 C.2         1 KO1       0.1068
      3 O1B       -11.3968    2.5519   70.1120 O.co2       1 KO1      -0.5426
      4 C2        -11.8989    2.8253   67.7150 C.3         1 KO1       0.2477
      5 O6        -11.8131    3.8775   66.7151 O.3         1 KO1      -0.3362
      6 C6        -12.3554    3.6207   65.3936 C.3         1 KO1       0.1171
      7 C7        -12.1342    4.8614   64.4621 C.3         1 KO1       0.1067
      8 C8        -12.4288    6.2541   65.0913 C.3         1 KO1       0.0727
      9 O8        -11.3053    6.7894   65.7899 O.3         1 KO1      -0.3924
     10 O7        -10.8078    4.8560   63.9404 O.3         1 KO1      -0.3869
     11 C5        -13.8427    3.1500   65.4695 C.3         1 KO1       0.1120
     12 O5        -14.7197    4.2031   65.8756 O.3         1 KO1      -0.3865
     13 C4        -13.9610    1.9507   66.4415 C.3         1 KO1       0.1139
     14 O4        -15.3108    1.5161   66.5509 O.3         1 KO1      -0.3865
     15 C3        -13.3738    2.3008   67.8360 C.3         1 KO1       0.1429
     16 O3        -14.2351    3.2502   68.4720 O.3         1 KO1      -0.3844
     17 O2        -11.0557    1.6908   67.3671 O.3         1 KO1      -0.3388
     18 C1         -6.7812    1.7964   64.8132 C.2         1 KO1       0.1043
     19 O1A        -7.2639    2.6019   63.8381 O.co2       1 KO1      -0.5426
     20 O1B        -5.8423    0.8925   64.4361 O.co2       1 KO1      -0.5426
     21 C2         -7.3699    1.7933   66.1804 C.3         1 KO1       0.2225
     22 C3         -8.9305    1.9611   66.1152 C.3         1 KO1       0.0360
     23 C4         -9.6158    1.7134   67.4806 C.3         1 KO1       0.0937
     24 C5         -9.1596    0.3510   68.0501 C.3         1 KO1       0.1098
     25 O5         -9.6890   -0.7032   67.2354 O.3         1 KO1      -0.3866
     26 C6         -7.6048    0.2881   68.1181 C.3         1 KO1       0.1170
     27 O6         -7.0822    0.4885   66.7771 O.3         1 KO1      -0.3380
     28 C7         -7.1161   -1.0309   68.7886 C.3         1 KO1       0.1067
     29 O7         -7.2723   -0.9248   70.2078 O.3         1 KO1      -0.3869
     30 C8         -5.6450   -1.4102   68.4688 C.3         1 KO1       0.0727
     31 O8         -5.2829   -2.5948   69.1769 O.3         1 KO1      -0.3924
     32 O2         -6.6309    2.7412   67.0042 O.3         1 KO1      -0.3323
     33 C9         -6.9402    4.1481   67.1116 C.3         1 KO1       0.0783
     34 C10        -6.6223    4.9573   65.9549 C.2         1 KO1      -0.0639
     35 C11        -6.9559    6.2555   65.8945 C.2         1 KO1      -0.1153
     36 H1        -11.7992    2.7879   64.9494 H           1 KO1       0.0649
     37 H2        -12.7861    4.7570   63.5899 H           1 KO1       0.0643
     38 H3        -13.2627    6.1862   65.7899 H           1 KO1       0.0584
     39 H4        -12.7094    6.9586   64.3037 H           1 KO1       0.0584
     40 H5        -10.7292    7.1753   65.0944 H           1 KO1       0.2095
     41 H6        -10.2105    4.9269   64.7175 H           1 KO1       0.2100
     42 H7        -14.1636    2.8207   64.4766 H           1 KO1       0.0647
     43 H8        -14.8767    4.7448   65.0774 H           1 KO1       0.2100
     44 H9        -13.4004    1.1099   66.0270 H           1 KO1       0.0647
     45 H10       -15.8046    2.2769   66.9239 H           1 KO1       0.2100
     46 H11       -13.3838    1.3940   68.4484 H           1 KO1       0.0667
     47 H12       -14.0767    3.1631   69.4337 H           1 KO1       0.2100
     48 H13        -9.3345    1.2467   65.3967 H           1 KO1       0.0336
     49 H14        -9.1769    2.9612   65.7527 H           1 KO1       0.0336
     50 H15        -9.2885    2.4752   68.2069 H           1 KO1       0.0623
     51 H16        -9.5704    0.2389   69.0597 H           1 KO1       0.0646
     52 H17       -10.6021   -0.8520   67.5720 H           1 KO1       0.2100
     53 H18        -7.2541    1.1011   68.7617 H           1 KO1       0.0649
     54 H19        -7.7402   -1.8657   68.4646 H           1 KO1       0.0643
     55 H20        -6.6144   -0.2596   70.5019 H           1 KO1       0.2100
     56 H21        -4.9680   -0.5901   68.7444 H           1 KO1       0.0584
     57 H22        -5.5418   -1.6105   67.3985 H           1 KO1       0.0584
     58 H23        -4.4115   -2.3955   69.5752 H           1 KO1       0.2095
     59 H24        -6.3453    4.5274   67.9461 H           1 KO1       0.0740
     60 H25        -7.9864    4.2859   67.3720 H           1 KO1       0.0740
     61 H26        -6.1261    4.5593   65.1924 H           1 KO1       0.0695
     62 H27        -6.7188    6.7958   65.0977 H           1 KO1       0.0290
     63 H28        -7.4313    6.7000   66.6422 H           1 KO1       0.0290
@<TRIPOS>BOND
     1     2     1  ar
     2     2     3  ar
     3     4     2   1
     4     4     5   1
     5     4    15   1
     6    17     4   1
     7     5     6   1
     8     6     7   1
     9     6    11   1
    10     7     8   1
    11     7    10   1
    12     8     9   1
    13    11    12   1
    14    13    11   1
    15    13    14   1
    16    15    13   1
    17    15    16   1
    18    23    17   1
    19    18    19  ar
    20    18    20  ar
    21    21    18   1
    22    22    21   1
    23    21    27   1
    24    21    32   1
    25    22    23   1
    26    23    24   1
    27    24    25   1
    28    24    26   1
    29    26    27   1
    30    26    28   1
    31    28    29   1
    32    28    30   1
    33    30    31   1
    34    32    33   1
    35    33    34   1
    36    34    35   2
    37     6    36   1
    38     7    37   1
    39     8    38   1
    40     8    39   1
    41     9    40   1
    42    10    41   1
    43    11    42   1
    44    12    43   1
    45    13    44   1
    46    14    45   1
    47    15    46   1
    48    16    47   1
    49    22    48   1
    50    22    49   1
    51    23    50   1
    52    24    51   1
    53    25    52   1
    54    26    53   1
    55    28    54   1
    56    29    55   1
    57    30    56   1
    58    30    57   1
    59    31    58   1
    60    33    59   1
    61    33    60   1
    62    34    61   1
    63    35    62   1
    64    35    63   1
@<TRIPOS>SUBSTRUCTURE
     1  KO1      2

