@<TRIPOS>MOLECULE
2r23_ligand_034
    63    64
SMALL
GAST_HUCK
****
This file was generated by PARSER (from files_GN.cpp)

@<TRIPOS>ATOM
      1 OA1        -9.8269    7.6533   69.3271 O.co2       1 KO1      -0.5426
      2 C1        -10.6754    6.6082   69.4163 C.2         1 KO1       0.1068
      3 O1B       -10.4931    5.7678   70.4644 O.co2       1 KO1      -0.5426
      4 C2        -11.4791    6.2062   68.2396 C.3         1 KO1       0.2477
      5 O6        -12.0383    7.4341   67.7203 O.3         1 KO1      -0.3362
      6 C6        -12.8477    7.3248   66.5283 C.3         1 KO1       0.1171
      7 C7        -13.1761    8.7591   66.0239 C.3         1 KO1       0.1067
      8 C8        -11.9259    9.6672   65.7648 C.3         1 KO1       0.0727
      9 O8        -10.6965    8.9497   65.5749 O.3         1 KO1      -0.3924
     10 O7        -13.9648    8.6854   64.8304 O.3         1 KO1      -0.3869
     11 C5        -14.1009    6.4495   66.8103 C.3         1 KO1       0.1120
     12 O5        -15.0338    7.1310   67.6518 O.3         1 KO1      -0.3865
     13 C4        -13.6636    5.0957   67.4277 C.3         1 KO1       0.1139
     14 O4        -14.8020    4.3304   67.8201 O.3         1 KO1      -0.3865
     15 C3        -12.6727    5.2580   68.6154 C.3         1 KO1       0.1429
     16 O3        -13.3668    5.7347   69.7746 O.3         1 KO1      -0.3844
     17 O2        -10.6205    5.6652   67.1980 O.3         1 KO1      -0.3388
     18 C1         -5.9838    3.9316   67.9063 C.2         1 KO1       0.1043
     19 O1A        -5.5044    5.1836   68.1092 O.co2       1 KO1      -0.5426
     20 O1B        -5.1025    2.9063   67.9919 O.co2       1 KO1      -0.5426
     21 C2         -7.4407    3.6354   67.8240 C.3         1 KO1       0.2225
     22 C3         -8.3215    4.9088   67.6049 C.3         1 KO1       0.0360
     23 C4         -9.8010    4.4955   67.4006 C.3         1 KO1       0.0937
     24 C5         -9.9139    3.5380   66.1803 C.3         1 KO1       0.1098
     25 O5         -9.6196    4.2404   64.9703 O.3         1 KO1      -0.3866
     26 C6         -8.9542    2.3206   66.3537 C.3         1 KO1       0.1170
     27 O6         -7.6140    2.7873   66.6591 O.3         1 KO1      -0.3380
     28 C7         -8.9887    1.3316   65.1336 C.3         1 KO1       0.1067
     29 O7         -9.6048    0.0966   65.5146 O.3         1 KO1      -0.3869
     30 C8         -7.6123    1.0049   64.4916 C.3         1 KO1       0.0727
     31 O8         -7.0553    2.1400   63.8310 O.3         1 KO1      -0.3924
     32 O2         -7.8581    2.8551   68.9813 O.3         1 KO1      -0.3323
     33 C9         -7.6610    3.3471   70.3237 C.3         1 KO1       0.0783
     34 C10        -8.5376    2.6318   71.2277 C.2         1 KO1      -0.0639
     35 C11        -8.5641    2.8900   72.5549 C.2         1 KO1      -0.1153
     36 H1        -12.2715    6.8461   65.7312 H           1 KO1       0.0649
     37 H2        -13.7958    9.2736   66.7746 H           1 KO1       0.0643
     38 H3        -11.7743   10.3499   66.6215 H           1 KO1       0.0584
     39 H4        -12.0887   10.3002   64.8759 H           1 KO1       0.0584
     40 H5        -10.8513    8.3927   64.7793 H           1 KO1       0.2095
     41 H6        -13.4060    8.2015   64.1874 H           1 KO1       0.2100
     42 H7        -14.6172    6.2477   65.8718 H           1 KO1       0.0647
     43 H8        -14.5273    7.4302   68.4312 H           1 KO1       0.2100
     44 H9        -13.1601    4.5151   66.6468 H           1 KO1       0.0647
     45 H10       -15.2422    4.8556   68.5225 H           1 KO1       0.2100
     46 H11       -12.3072    4.2656   68.8822 H           1 KO1       0.0667
     47 H12       -13.5716    6.6729   69.5946 H           1 KO1       0.2100
     48 H13        -7.9635    5.4520   66.7212 H           1 KO1       0.0336
     49 H14        -8.2258    5.5859   68.4623 H           1 KO1       0.0336
     50 H15       -10.1302    3.9530   68.2868 H           1 KO1       0.0623
     51 H16       -10.9439    3.1804   66.1149 H           1 KO1       0.0646
     52 H17       -10.3124    4.9321   64.8854 H           1 KO1       0.2100
     53 H18        -9.3095    1.7662   67.2255 H           1 KO1       0.0649
     54 H19        -9.6180    1.7290   64.3369 H           1 KO1       0.0643
     55 H20        -9.0290   -0.2794   66.2133 H           1 KO1       0.2100
     56 H21        -7.7367    0.2211   63.7378 H           1 KO1       0.0584
     57 H22        -6.9124    0.6389   65.2457 H           1 KO1       0.0584
     58 H23        -6.9078    2.8093   64.5334 H           1 KO1       0.2095
     59 H24        -7.8810    4.4209   70.4058 H           1 KO1       0.0740
     60 H25        -6.6208    3.1710   70.6122 H           1 KO1       0.0740
     61 H26        -9.2039    1.9845   70.8675 H           1 KO1       0.0695
     62 H27        -9.1996    2.3967   73.1412 H           1 KO1       0.0290
     63 H28        -7.9293    3.5356   72.9637 H           1 KO1       0.0290
@<TRIPOS>BOND
     1     2     1  ar
     2     2     3  ar
     3     4     2   1
     4     4     5   1
     5     4    15   1
     6    17     4   1
     7     5     6   1
     8     6     7   1
     9     6    11   1
    10     7     8   1
    11     7    10   1
    12     8     9   1
    13    11    12   1
    14    13    11   1
    15    13    14   1
    16    15    13   1
    17    15    16   1
    18    23    17   1
    19    18    19  ar
    20    18    20  ar
    21    21    18   1
    22    22    21   1
    23    21    27   1
    24    21    32   1
    25    22    23   1
    26    23    24   1
    27    24    25   1
    28    24    26   1
    29    26    27   1
    30    26    28   1
    31    28    29   1
    32    28    30   1
    33    30    31   1
    34    32    33   1
    35    33    34   1
    36    34    35   2
    37     6    36   1
    38     7    37   1
    39     8    38   1
    40     8    39   1
    41     9    40   1
    42    10    41   1
    43    11    42   1
    44    12    43   1
    45    13    44   1
    46    14    45   1
    47    15    46   1
    48    16    47   1
    49    22    48   1
    50    22    49   1
    51    23    50   1
    52    24    51   1
    53    25    52   1
    54    26    53   1
    55    28    54   1
    56    29    55   1
    57    30    56   1
    58    30    57   1
    59    31    58   1
    60    33    59   1
    61    33    60   1
    62    34    61   1
    63    35    62   1
    64    35    63   1
@<TRIPOS>SUBSTRUCTURE
     1  KO1      2

