@<TRIPOS>MOLECULE
2r23_ligand_040
    63    64
SMALL
GAST_HUCK
****
This file was generated by PARSER (from files_GN.cpp)

@<TRIPOS>ATOM
      1 OA1       -12.1637    3.8168   67.3708 O.co2       1 KO1      -0.5426
      2 C1        -10.9012    4.0356   66.9298 C.2         1 KO1       0.1068
      3 O1B       -10.5508    3.4641   65.7566 O.co2       1 KO1      -0.5426
      4 C2         -9.9839    4.8875   67.7231 C.3         1 KO1       0.2477
      5 O6        -10.7072    6.1411   67.8012 O.3         1 KO1      -0.3362
      6 C6        -10.1367    7.2135   68.5849 C.3         1 KO1       0.1171
      7 C7        -11.1981    8.3578   68.6517 C.3         1 KO1       0.1067
      8 C8        -10.8521    9.5260   69.6120 C.3         1 KO1       0.0727
      9 O8         -9.7607   10.3213   69.1599 O.3         1 KO1      -0.3924
     10 O7        -11.5394    8.8562   67.3578 O.3         1 KO1      -0.3869
     11 C5         -8.7214    7.5972   68.0500 C.3         1 KO1       0.1120
     12 O5         -8.7628    8.4215   66.8840 O.3         1 KO1      -0.3865
     13 C4         -7.8565    6.3246   67.8117 C.3         1 KO1       0.1139
     14 O4         -6.6369    6.6551   67.1480 O.3         1 KO1      -0.3865
     15 C3         -8.6126    5.2029   67.0395 C.3         1 KO1       0.1429
     16 O3         -8.7756    5.5727   65.6691 O.3         1 KO1      -0.3844
     17 O2         -9.8560    4.3697   69.0782 O.3         1 KO1      -0.3388
     18 C1         -5.9186    1.3676   70.2182 C.2         1 KO1       0.1043
     19 O1A        -5.5426    0.1704   69.7069 O.co2       1 KO1      -0.5426
     20 O1B        -4.9438    2.2919   70.3601 O.co2       1 KO1      -0.5426
     21 C2         -7.3518    1.6980   70.4643 C.3         1 KO1       0.2225
     22 C3         -7.7943    2.9469   69.6248 C.3         1 KO1       0.0360
     23 C4         -9.3417    3.1249   69.6270 C.3         1 KO1       0.0937
     24 C5        -10.0174    1.8164   69.1210 C.3         1 KO1       0.1098
     25 O5         -9.6788    1.5900   67.7563 O.3         1 KO1      -0.3866
     26 C6         -9.5476    0.6094   69.9922 C.3         1 KO1       0.1170
     27 O6         -8.1036    0.5499   70.0113 O.3         1 KO1      -0.3380
     28 C7        -10.1221   -0.7828   69.5715 C.3         1 KO1       0.1067
     29 O7        -10.1559   -1.6439   70.7114 O.3         1 KO1      -0.3869
     30 C8         -9.3775   -1.5309   68.4253 C.3         1 KO1       0.0727
     31 O8         -8.0233   -1.8366   68.7552 O.3         1 KO1      -0.3924
     32 O2         -7.6351    1.7797   71.8826 O.3         1 KO1      -0.3323
     33 C9         -7.0537    2.7992   72.7184 C.3         1 KO1       0.0783
     34 C10        -7.5143    2.6515   74.0813 C.2         1 KO1      -0.0639
     35 C11        -7.1197    3.4744   75.0662 C.2         1 KO1      -0.1153
     36 H1        -10.0158    6.8531   69.6119 H           1 KO1       0.0649
     37 H2        -12.1175    7.9088   69.0365 H           1 KO1       0.0643
     38 H3        -10.6047    9.1306   70.5977 H           1 KO1       0.0584
     39 H4        -11.7225   10.1774   69.7200 H           1 KO1       0.0584
     40 H5        -10.0700   10.7400   68.3266 H           1 KO1       0.2095
     41 H6        -10.7454    9.3244   67.0208 H           1 KO1       0.2100
     42 H7         -8.2243    8.1948   68.8160 H           1 KO1       0.0647
     43 H8         -9.1460    7.8842   66.1639 H           1 KO1       0.2100
     44 H9         -7.5705    5.9299   68.7893 H           1 KO1       0.0647
     45 H10        -6.9028    7.0059   66.2685 H           1 KO1       0.2100
     46 H11        -7.9944    4.3086   67.0232 H           1 KO1       0.0667
     47 H12        -9.4522    6.2772   65.6534 H           1 KO1       0.2100
     48 H13        -7.4580    2.7986   68.5986 H           1 KO1       0.0336
     49 H14        -7.3149    3.8494   70.0055 H           1 KO1       0.0336
     50 H15        -9.6227    3.2247   70.6796 H           1 KO1       0.0623
     51 H16       -11.1028    1.9250   69.2022 H           1 KO1       0.0646
     52 H17       -10.3053    0.9005   67.4548 H           1 KO1       0.2100
     53 H18        -9.8994    0.7981   71.0146 H           1 KO1       0.0649
     54 H19       -11.1608   -0.6498   69.2634 H           1 KO1       0.0643
     55 H20        -9.2275   -1.7169   71.0198 H           1 KO1       0.2100
     56 H21        -9.3745   -0.9383   67.5134 H           1 KO1       0.0584
     57 H22        -9.8947   -2.4681   68.2056 H           1 KO1       0.0584
     58 H23        -8.0749   -2.4842   69.4869 H           1 KO1       0.2095
     59 H24        -7.3436    3.7878   72.3590 H           1 KO1       0.0740
     60 H25        -5.9666    2.7104   72.7114 H           1 KO1       0.0740
     61 H26        -8.1412    1.9149   74.3082 H           1 KO1       0.0695
     62 H27        -7.4529    3.3406   75.9897 H           1 KO1       0.0290
     63 H28        -6.4933    4.2224   74.8877 H           1 KO1       0.0290
@<TRIPOS>BOND
     1     2     1  ar
     2     2     3  ar
     3     4     2   1
     4     4     5   1
     5     4    15   1
     6    17     4   1
     7     5     6   1
     8     6     7   1
     9     6    11   1
    10     7     8   1
    11     7    10   1
    12     8     9   1
    13    11    12   1
    14    13    11   1
    15    13    14   1
    16    15    13   1
    17    15    16   1
    18    23    17   1
    19    18    19  ar
    20    18    20  ar
    21    21    18   1
    22    22    21   1
    23    21    27   1
    24    21    32   1
    25    22    23   1
    26    23    24   1
    27    24    25   1
    28    24    26   1
    29    26    27   1
    30    26    28   1
    31    28    29   1
    32    28    30   1
    33    30    31   1
    34    32    33   1
    35    33    34   1
    36    34    35   2
    37     6    36   1
    38     7    37   1
    39     8    38   1
    40     8    39   1
    41     9    40   1
    42    10    41   1
    43    11    42   1
    44    12    43   1
    45    13    44   1
    46    14    45   1
    47    15    46   1
    48    16    47   1
    49    22    48   1
    50    22    49   1
    51    23    50   1
    52    24    51   1
    53    25    52   1
    54    26    53   1
    55    28    54   1
    56    29    55   1
    57    30    56   1
    58    30    57   1
    59    31    58   1
    60    33    59   1
    61    33    60   1
    62    34    61   1
    63    35    62   1
    64    35    63   1
@<TRIPOS>SUBSTRUCTURE
     1  KO1      2

