@<TRIPOS>MOLECULE
2r23_ligand_002
    63    64
SMALL
GAST_HUCK
****
This file was generated by PARSER (from files_GN.cpp)

@<TRIPOS>ATOM
      1 OA1       -10.6416    3.6322   63.9184 O.co2       1 KO1      -0.5426
      2 C1        -10.5078    2.4988   64.6299 C.2         1 KO1       0.1068
      3 O1B       -11.4895    1.5762   64.5079 O.co2       1 KO1      -0.5426
      4 C2         -9.2438    2.1377   65.3138 C.3         1 KO1       0.2477
      5 O6         -8.3329    3.2661   65.1748 O.3         1 KO1      -0.3362
      6 C6         -7.0291    3.1502   65.8237 C.3         1 KO1       0.1171
      7 C7         -6.2484    4.4972   65.7103 C.3         1 KO1       0.1067
      8 C8         -7.0444    5.8087   66.0008 C.3         1 KO1       0.0727
      9 O8         -8.4407    5.6156   66.2488 O.3         1 KO1      -0.3924
     10 O7         -5.1450    4.4696   66.6132 O.3         1 KO1      -0.3869
     11 C5         -6.2630    1.9332   65.1980 C.3         1 KO1       0.1120
     12 O5         -5.8728    2.2059   63.8427 O.3         1 KO1      -0.3865
     13 C4         -7.1433    0.6526   65.2287 C.3         1 KO1       0.1139
     14 O4         -6.4963   -0.4149   64.5330 O.3         1 KO1      -0.3865
     15 C3         -8.5544    0.8992   64.6370 C.3         1 KO1       0.1429
     16 O3         -8.4721    1.0709   63.2168 O.3         1 KO1      -0.3844
     17 O2         -9.4720    2.0185   66.7509 O.3         1 KO1      -0.3388
     18 C1        -13.4345    0.3920   69.1468 C.2         1 KO1       0.1043
     19 O1A       -14.5041    0.5685   68.3329 O.co2       1 KO1      -0.5426
     20 O1B       -13.4942    0.9726   70.3742 O.co2       1 KO1      -0.5426
     21 C2        -12.1466   -0.0816   68.5906 C.3         1 KO1       0.2225
     22 C3        -11.5528    1.0922   67.7547 C.3         1 KO1       0.0360
     23 C4        -10.0550    0.8644   67.4212 C.3         1 KO1       0.0937
     24 C5         -9.2646    0.6255   68.7382 C.3         1 KO1       0.1098
     25 O5         -9.3239    1.7688   69.5915 O.3         1 KO1      -0.3866
     26 C6         -9.8598   -0.6091   69.4746 C.3         1 KO1       0.1170
     27 O6        -11.2860   -0.4195   69.7073 O.3         1 KO1      -0.3380
     28 C7         -9.1792   -0.9772   70.8439 C.3         1 KO1       0.1067
     29 O7         -9.7045   -0.1677   71.9130 O.3         1 KO1      -0.3869
     30 C8         -7.6304   -0.9109   70.9077 C.3         1 KO1       0.0727
     31 O8         -7.0071   -1.6218   69.8442 O.3         1 KO1      -0.3924
     32 O2        -12.2704   -1.2589   67.7414 O.3         1 KO1      -0.3323
     33 C9        -13.2757   -2.2670   68.0177 C.3         1 KO1       0.0783
     34 C10       -12.7889   -3.5737   68.4481 C.2         1 KO1      -0.0639
     35 C11       -11.5002   -3.9566   68.5056 C.2         1 KO1      -0.1153
     36 H1         -7.1650    2.9528   66.8954 H           1 KO1       0.0649
     37 H2         -5.8545    4.5709   64.6924 H           1 KO1       0.0643
     38 H3         -6.9268    6.4850   65.1365 H           1 KO1       0.0584
     39 H4         -6.6407    6.3318   66.8772 H           1 KO1       0.0584
     40 H5         -8.8869    6.2937   65.6784 H           1 KO1       0.2095
     41 H6         -4.4580    3.9272   66.1786 H           1 KO1       0.2100
     42 H7         -5.3578    1.7245   65.7891 H           1 KO1       0.0647
     43 H8         -5.0223    2.6871   63.9160 H           1 KO1       0.2100
     44 H9         -7.2518    0.3260   66.2655 H           1 KO1       0.0647
     45 H10        -6.5354   -0.1769   63.5785 H           1 KO1       0.2100
     46 H11        -9.1541    0.0003   64.7915 H           1 KO1       0.0667
     47 H12        -8.3333    2.0337   63.0809 H           1 KO1       0.2100
     48 H13       -11.6344    2.0244   68.3109 H           1 KO1       0.0336
     49 H14       -12.1265    1.2075   66.8331 H           1 KO1       0.0336
     50 H15        -9.9646   -0.0349   66.7915 H           1 KO1       0.0623
     51 H16        -8.2225    0.4461   68.4720 H           1 KO1       0.0646
     52 H17        -8.8725    2.4890   69.1107 H           1 KO1       0.2100
     53 H18        -9.7190   -1.4797   68.8101 H           1 KO1       0.0649
     54 H19        -9.4611   -2.0248   71.0703 H           1 KO1       0.0643
     55 H20       -10.6561   -0.4181   71.9757 H           1 KO1       0.2100
     56 H21        -7.2960   -1.3257   71.8574 H           1 KO1       0.0584
     57 H22        -7.3149    0.1391   70.8657 H           1 KO1       0.0584
     58 H23        -7.4094   -2.5169   69.8689 H           1 KO1       0.2095
     59 H24       -13.8275   -2.4233   67.0803 H           1 KO1       0.0740
     60 H25       -13.9976   -1.9564   68.7823 H           1 KO1       0.0740
     61 H26       -13.4797   -4.2302   68.7530 H           1 KO1       0.0695
     62 H27       -11.2831   -4.8668   68.8473 H           1 KO1       0.0290
     63 H28       -10.7719   -3.3623   68.1862 H           1 KO1       0.0290
@<TRIPOS>BOND
     1     2     1  ar
     2     2     3  ar
     3     4     2   1
     4     4     5   1
     5     4    15   1
     6    17     4   1
     7     5     6   1
     8     6     7   1
     9     6    11   1
    10     7     8   1
    11     7    10   1
    12     8     9   1
    13    11    12   1
    14    13    11   1
    15    13    14   1
    16    15    13   1
    17    15    16   1
    18    23    17   1
    19    18    19  ar
    20    18    20  ar
    21    21    18   1
    22    22    21   1
    23    21    27   1
    24    21    32   1
    25    22    23   1
    26    23    24   1
    27    24    25   1
    28    24    26   1
    29    26    27   1
    30    26    28   1
    31    28    29   1
    32    28    30   1
    33    30    31   1
    34    32    33   1
    35    33    34   1
    36    34    35   2
    37     6    36   1
    38     7    37   1
    39     8    38   1
    40     8    39   1
    41     9    40   1
    42    10    41   1
    43    11    42   1
    44    12    43   1
    45    13    44   1
    46    14    45   1
    47    15    46   1
    48    16    47   1
    49    22    48   1
    50    22    49   1
    51    23    50   1
    52    24    51   1
    53    25    52   1
    54    26    53   1
    55    28    54   1
    56    29    55   1
    57    30    56   1
    58    30    57   1
    59    31    58   1
    60    33    59   1
    61    33    60   1
    62    34    61   1
    63    35    62   1
    64    35    63   1
@<TRIPOS>SUBSTRUCTURE
     1  KO1      2

