@<TRIPOS>MOLECULE
2r23_ligand_039
    63    64
SMALL
GAST_HUCK
****
This file was generated by PARSER (from files_GN.cpp)

@<TRIPOS>ATOM
      1 OA1        -6.8824    2.8125   71.6114 O.co2       1 KO1      -0.5426
      2 C1         -6.1587    1.7860   71.1062 C.2         1 KO1       0.1068
      3 O1B        -4.9342    2.0684   70.6051 O.co2       1 KO1      -0.5426
      4 C2         -6.7904    0.4584   70.9018 C.3         1 KO1       0.2477
      5 O6         -7.5009    0.2031   72.1388 O.3         1 KO1      -0.3362
      6 C6         -8.2474   -1.0325   72.2352 C.3         1 KO1       0.1171
      7 C7         -9.0643   -1.0161   73.5600 C.3         1 KO1       0.1067
      8 C8        -10.1722    0.0706   73.5877 C.3         1 KO1       0.0727
      9 O8        -11.0286    0.0082   72.4499 O.3         1 KO1      -0.3924
     10 O7         -9.6530   -2.2927   73.8103 O.3         1 KO1      -0.3869
     11 C5         -7.2653   -2.2351   72.1182 C.3         1 KO1       0.1120
     12 O5         -6.4414   -2.3553   73.2801 O.3         1 KO1      -0.3865
     13 C4         -6.4094   -2.0964   70.8279 C.3         1 KO1       0.1139
     14 O4         -5.4187   -3.1235   70.7690 O.3         1 KO1      -0.3865
     15 C3         -5.7502   -0.6969   70.6786 C.3         1 KO1       0.1429
     16 O3         -4.6358   -0.5859   71.5693 O.3         1 KO1      -0.3844
     17 O2         -7.7795    0.5282   69.8396 O.3         1 KO1      -0.3388
     18 C1         -9.1041    4.3903   66.9752 C.2         1 KO1       0.1043
     19 O1A        -9.6375    5.0800   68.0117 O.co2       1 KO1      -0.5426
     20 O1B        -9.4739    4.7491   65.7229 O.co2       1 KO1      -0.5426
     21 C2         -8.1463    3.2705   67.1708 C.3         1 KO1       0.2225
     22 C3         -8.3342    2.5360   68.5375 C.3         1 KO1       0.0360
     23 C4         -7.5288    1.2113   68.5864 C.3         1 KO1       0.0937
     24 C5         -7.9585    0.3017   67.4005 C.3         1 KO1       0.1098
     25 O5         -9.2853   -0.1838   67.6057 O.3         1 KO1      -0.3866
     26 C6         -7.8382    1.0738   66.0500 C.3         1 KO1       0.1170
     27 O6         -8.5067    2.3507   66.1252 O.3         1 KO1      -0.3380
     28 C7         -8.3907    0.3028   64.8042 C.3         1 KO1       0.1067
     29 O7         -7.3778    0.2233   63.7959 O.3         1 KO1      -0.3869
     30 C8         -9.6563    0.9105   64.1360 C.3         1 KO1       0.0727
     31 O8        -10.6819    1.2347   65.0666 O.3         1 KO1      -0.3924
     32 O2         -6.7572    3.6298   66.9298 O.3         1 KO1      -0.3323
     33 C9         -6.1678    4.8254   67.4784 C.3         1 KO1       0.0783
     34 C10        -6.4508    4.9965   68.8862 C.2         1 KO1      -0.0639
     35 C11        -7.3501    5.8742   69.3516 C.2         1 KO1      -0.1153
     36 H1         -8.9642   -1.0950   71.4112 H           1 KO1       0.0649
     37 H2         -8.3839   -0.8086   74.3903 H           1 KO1       0.0643
     38 H3         -9.7210    1.0648   73.6204 H           1 KO1       0.0584
     39 H4        -10.7818   -0.0500   74.4871 H           1 KO1       0.0584
     40 H5        -11.6302   -0.7480   72.6166 H           1 KO1       0.2095
     41 H6        -10.1168   -2.5378   72.9819 H           1 KO1       0.2100
     42 H7         -7.8431   -3.1594   72.0497 H           1 KO1       0.0647
     43 H8         -6.3413   -1.4509   73.6382 H           1 KO1       0.2100
     44 H9         -7.0643   -2.2518   69.9670 H           1 KO1       0.0647
     45 H10        -4.7542   -2.8927   71.4512 H           1 KO1       0.2100
     46 H11        -5.3364   -0.6228   69.6704 H           1 KO1       0.0667
     47 H12        -4.9752   -0.1540   72.3780 H           1 KO1       0.2100
     48 H13        -9.3938    2.3032   68.6815 H           1 KO1       0.0336
     49 H14        -8.0343    3.1812   69.3622 H           1 KO1       0.0336
     50 H15        -6.4645    1.4401   68.4753 H           1 KO1       0.0623
     51 H16        -7.2946   -0.5675   67.3737 H           1 KO1       0.0646
     52 H17        -9.2492   -0.7063   68.4332 H           1 KO1       0.2100
     53 H18        -6.7697    1.2500   65.8837 H           1 KO1       0.0649
     54 H19        -8.6155   -0.7274   65.0904 H           1 KO1       0.0643
     55 H20        -7.5232    1.0036   63.2200 H           1 KO1       0.2100
     56 H21       -10.0727    0.1880   63.4335 H           1 KO1       0.0584
     57 H22        -9.3982    1.8118   63.5752 H           1 KO1       0.0584
     58 H23       -10.4796    2.1408   65.3840 H           1 KO1       0.2095
     59 H24        -6.4801    5.6874   66.8860 H           1 KO1       0.0740
     60 H25        -5.0863    4.7430   67.3658 H           1 KO1       0.0740
     61 H26        -5.9811    4.4106   69.5319 H           1 KO1       0.0695
     62 H27        -7.5191    5.9460   70.3263 H           1 KO1       0.0290
     63 H28        -7.8705    6.4492   68.7321 H           1 KO1       0.0290
@<TRIPOS>BOND
     1     2     1  ar
     2     2     3  ar
     3     4     2   1
     4     4     5   1
     5     4    15   1
     6    17     4   1
     7     5     6   1
     8     6     7   1
     9     6    11   1
    10     7     8   1
    11     7    10   1
    12     8     9   1
    13    11    12   1
    14    13    11   1
    15    13    14   1
    16    15    13   1
    17    15    16   1
    18    23    17   1
    19    18    19  ar
    20    18    20  ar
    21    21    18   1
    22    22    21   1
    23    21    27   1
    24    21    32   1
    25    22    23   1
    26    23    24   1
    27    24    25   1
    28    24    26   1
    29    26    27   1
    30    26    28   1
    31    28    29   1
    32    28    30   1
    33    30    31   1
    34    32    33   1
    35    33    34   1
    36    34    35   2
    37     6    36   1
    38     7    37   1
    39     8    38   1
    40     8    39   1
    41     9    40   1
    42    10    41   1
    43    11    42   1
    44    12    43   1
    45    13    44   1
    46    14    45   1
    47    15    46   1
    48    16    47   1
    49    22    48   1
    50    22    49   1
    51    23    50   1
    52    24    51   1
    53    25    52   1
    54    26    53   1
    55    28    54   1
    56    29    55   1
    57    30    56   1
    58    30    57   1
    59    31    58   1
    60    33    59   1
    61    33    60   1
    62    34    61   1
    63    35    62   1
    64    35    63   1
@<TRIPOS>SUBSTRUCTURE
     1  KO1      2

