@<TRIPOS>MOLECULE
2r23_ligand_043
    63    64
SMALL
GAST_HUCK
****
This file was generated by PARSER (from files_GN.cpp)

@<TRIPOS>ATOM
      1 OA1       -12.2270    6.3887   67.5001 O.co2       1 KO1      -0.5426
      2 C1        -11.7014    5.4096   68.2653 C.2         1 KO1       0.1068
      3 O1B       -11.6759    5.6522   69.6007 O.co2       1 KO1      -0.5426
      4 C2        -10.8899    4.3191   67.6546 C.3         1 KO1       0.2477
      5 O6         -9.8573    5.0174   66.8998 O.3         1 KO1      -0.3362
      6 C6         -8.8973    4.2091   66.1659 C.3         1 KO1       0.1171
      7 C7         -7.7843    5.0925   65.5082 C.3         1 KO1       0.1067
      8 C8         -7.4578    6.4016   66.2754 C.3         1 KO1       0.0727
      9 O8         -6.8270    6.1566   67.5305 O.3         1 KO1      -0.3924
     10 O7         -6.5843    4.3232   65.3482 O.3         1 KO1      -0.3869
     11 C5         -9.6447    3.3240   65.1128 C.3         1 KO1       0.1120
     12 O5        -10.1694    4.0882   64.0260 O.3         1 KO1      -0.3865
     13 C4        -10.7857    2.5346   65.8092 C.3         1 KO1       0.1139
     14 O4        -11.5281    1.7527   64.8766 O.3         1 KO1      -0.3865
     15 C3        -11.7255    3.4402   66.6552 C.3         1 KO1       0.1429
     16 O3        -12.5622    4.2192   65.8009 O.3         1 KO1      -0.3844
     17 O2        -10.2334    3.5357   68.6930 O.3         1 KO1      -0.3388
     18 C1         -9.8083    1.4354   73.1358 C.2         1 KO1       0.1043
     19 O1A        -9.3164    0.2227   73.4876 O.co2       1 KO1      -0.5426
     20 O1B        -9.3816    2.5026   73.8517 O.co2       1 KO1      -0.5426
     21 C2        -10.7468    1.5987   71.9830 C.3         1 KO1       0.2225
     22 C3        -10.2018    2.6705   70.9687 C.3         1 KO1       0.0360
     23 C4        -10.9490    2.6600   69.6002 C.3         1 KO1       0.0937
     24 C5        -11.0053    1.1999   69.0597 C.3         1 KO1       0.1098
     25 O5         -9.6794    0.7965   68.7103 O.3         1 KO1      -0.3866
     26 C6        -11.6192    0.2441   70.1264 C.3         1 KO1       0.1170
     27 O6        -10.8112    0.3058   71.3204 O.3         1 KO1      -0.3380
     28 C7        -11.8612   -1.2270   69.6531 C.3         1 KO1       0.1067
     29 O7        -11.9814   -2.0792   70.7934 O.3         1 KO1      -0.3869
     30 C8        -10.8483   -1.8525   68.6609 C.3         1 KO1       0.0727
     31 O8         -9.4948   -1.6354   69.0618 O.3         1 KO1      -0.3924
     32 O2        -12.0846    1.8590   72.4968 O.3         1 KO1      -0.3323
     33 C9        -12.4637    3.1062   73.1176 C.3         1 KO1       0.0783
     34 C10       -13.4165    3.8234   72.2955 C.2         1 KO1      -0.0639
     35 C11       -13.9265    5.0044   72.6547 C.2         1 KO1      -0.1153
     36 H1         -8.3898    3.5521   66.8858 H           1 KO1       0.0649
     37 H2         -8.0952    5.3836   64.5044 H           1 KO1       0.0643
     38 H3         -8.3798    6.9559   66.4553 H           1 KO1       0.0584
     39 H4         -6.8038    7.0270   65.6667 H           1 KO1       0.0584
     40 H5         -6.0379    5.6146   67.3256 H           1 KO1       0.2095
     41 H6         -6.3923    3.9353   66.2241 H           1 KO1       0.2100
     42 H7         -8.9329    2.6050   64.6897 H           1 KO1       0.0647
     43 H8        -10.1389    5.0232   64.3179 H           1 KO1       0.2100
     44 H9        -10.3018    1.8046   66.4738 H           1 KO1       0.0647
     45 H10       -11.9827    2.3915   64.2917 H           1 KO1       0.2100
     46 H11       -12.4139    2.8122   67.2145 H           1 KO1       0.0667
     47 H12       -12.0773    5.0482   65.6223 H           1 KO1       0.2100
     48 H13        -9.1405    2.4660   70.7829 H           1 KO1       0.0336
     49 H14       -10.2659    3.6696   71.4067 H           1 KO1       0.0336
     50 H15       -11.9675    3.0166   69.7702 H           1 KO1       0.0623
     51 H16       -11.6352    1.1511   68.1702 H           1 KO1       0.0646
     52 H17        -9.2491    1.5793   68.2953 H           1 KO1       0.2100
     53 H18       -12.6237    0.6287   70.3639 H           1 KO1       0.0649
     54 H19       -12.8338   -1.2591   69.1503 H           1 KO1       0.0643
     55 H20       -11.1335   -1.9929   71.2795 H           1 KO1       0.2100
     56 H21       -10.9870   -1.4228   67.6688 H           1 KO1       0.0584
     57 H22       -11.0189   -2.9302   68.5753 H           1 KO1       0.0584
     58 H23        -9.2589   -2.4167   69.6164 H           1 KO1       0.2095
     59 H24       -11.6065    3.7472   73.3259 H           1 KO1       0.0740
     60 H25       -12.9358    2.8560   74.0667 H           1 KO1       0.0740
     61 H26       -13.7055    3.4264   71.4317 H           1 KO1       0.0695
     62 H27       -14.5694    5.4712   72.0635 H           1 KO1       0.0290
     63 H28       -13.6664    5.4382   73.5085 H           1 KO1       0.0290
@<TRIPOS>BOND
     1     2     1  ar
     2     2     3  ar
     3     4     2   1
     4     4     5   1
     5     4    15   1
     6    17     4   1
     7     5     6   1
     8     6     7   1
     9     6    11   1
    10     7     8   1
    11     7    10   1
    12     8     9   1
    13    11    12   1
    14    13    11   1
    15    13    14   1
    16    15    13   1
    17    15    16   1
    18    23    17   1
    19    18    19  ar
    20    18    20  ar
    21    21    18   1
    22    22    21   1
    23    21    27   1
    24    21    32   1
    25    22    23   1
    26    23    24   1
    27    24    25   1
    28    24    26   1
    29    26    27   1
    30    26    28   1
    31    28    29   1
    32    28    30   1
    33    30    31   1
    34    32    33   1
    35    33    34   1
    36    34    35   2
    37     6    36   1
    38     7    37   1
    39     8    38   1
    40     8    39   1
    41     9    40   1
    42    10    41   1
    43    11    42   1
    44    12    43   1
    45    13    44   1
    46    14    45   1
    47    15    46   1
    48    16    47   1
    49    22    48   1
    50    22    49   1
    51    23    50   1
    52    24    51   1
    53    25    52   1
    54    26    53   1
    55    28    54   1
    56    29    55   1
    57    30    56   1
    58    30    57   1
    59    31    58   1
    60    33    59   1
    61    33    60   1
    62    34    61   1
    63    35    62   1
    64    35    63   1
@<TRIPOS>SUBSTRUCTURE
     1  KO1      2

