@<TRIPOS>MOLECULE
2r23_ligand_021
    63    64
SMALL
GAST_HUCK
****
This file was generated by PARSER (from files_GN.cpp)

@<TRIPOS>ATOM
      1 OA1       -10.4495    3.6261   65.2979 O.co2       1 KO1      -0.5426
      2 C1        -10.0909    2.3624   65.6139 C.2         1 KO1       0.1068
      3 O1B       -10.8243    1.3589   65.0912 O.co2       1 KO1      -0.5426
      4 C2         -9.0700    2.1335   66.6603 C.3         1 KO1       0.2477
      5 O6         -8.0800    3.1482   66.3931 O.3         1 KO1      -0.3362
      6 C6         -6.9678    3.2706   67.3122 C.3         1 KO1       0.1171
      7 C7         -6.1673    4.5569   66.9358 C.3         1 KO1       0.1067
      8 C8         -7.0415    5.8393   66.8584 C.3         1 KO1       0.0727
      9 O8         -8.4041    5.5494   66.5215 O.3         1 KO1      -0.3924
     10 O7         -5.1368    4.8115   67.8950 O.3         1 KO1      -0.3869
     11 C5         -6.1552    1.9370   67.2892 C.3         1 KO1       0.1120
     12 O5         -5.4736    1.7531   66.0465 O.3         1 KO1      -0.3865
     13 C4         -7.1131    0.7320   67.5362 C.3         1 KO1       0.1139
     14 O4         -6.4253   -0.5155   67.4739 O.3         1 KO1      -0.3865
     15 C3         -8.3283    0.7544   66.5611 C.3         1 KO1       0.1429
     16 O3         -7.8971    0.4758   65.2217 O.3         1 KO1      -0.3844
     17 O2         -9.6388    2.4247   67.9657 O.3         1 KO1      -0.3388
     18 C1        -14.0115    0.4141   69.2086 C.2         1 KO1       0.1043
     19 O1A       -14.5645   -0.0910   68.0816 O.co2       1 KO1      -0.5426
     20 O1B       -14.7898    1.2562   69.9361 O.co2       1 KO1      -0.5426
     21 C2        -12.5493    0.3230   69.4498 C.3         1 KO1       0.2225
     22 C3        -11.7942    1.2385   68.4262 C.3         1 KO1       0.0360
     23 C4        -10.3039    1.4484   68.8003 C.3         1 KO1       0.0937
     24 C5        -10.1819    1.9272   70.2755 C.3         1 KO1       0.1098
     25 O5        -10.6926    3.2540   70.4230 O.3         1 KO1      -0.3866
     26 C6        -10.9363    0.9393   71.2195 C.3         1 KO1       0.1170
     27 O6        -12.3119    0.8288   70.7824 O.3         1 KO1      -0.3380
     28 C7        -10.9255    1.3642   72.7184 C.3         1 KO1       0.1067
     29 O7         -9.6043    1.3209   73.2647 O.3         1 KO1      -0.3869
     30 C8        -11.8343    0.4863   73.6167 C.3         1 KO1       0.0727
     31 O8        -11.3739   -0.8621   73.7141 O.3         1 KO1      -0.3924
     32 O2        -12.1765   -1.0812   69.4797 O.3         1 KO1      -0.3323
     33 C9        -11.7579   -1.7860   68.2928 C.3         1 KO1       0.0783
     34 C10       -11.9716   -3.2089   68.4544 C.2         1 KO1      -0.0639
     35 C11       -11.5565   -3.9006   69.5311 C.2         1 KO1      -0.1153
     36 H1         -7.3489    3.4252   68.3295 H           1 KO1       0.0649
     37 H2         -5.6966    4.4102   65.9650 H           1 KO1       0.0643
     38 H3         -6.6363    6.5024   66.0873 H           1 KO1       0.0584
     39 H4         -7.0232    6.3765   67.8148 H           1 KO1       0.0584
     40 H5         -8.6681    6.1963   65.8297 H           1 KO1       0.2095
     41 H6         -4.6274    3.9742   67.9713 H           1 KO1       0.2100
     42 H7         -5.4080    1.9525   68.0818 H           1 KO1       0.0647
     43 H8         -4.7472    2.4136   66.0182 H           1 KO1       0.2100
     44 H9         -7.4928    0.8079   68.5580 H           1 KO1       0.0647
     45 H10        -5.9577   -0.5393   66.6110 H           1 KO1       0.2100
     46 H11        -9.0067   -0.0601   66.8213 H           1 KO1       0.0667
     47 H12        -7.3454    1.2413   64.9606 H           1 KO1       0.2100
     48 H13       -12.2775    2.2222   68.3799 H           1 KO1       0.0336
     49 H14       -11.8702    0.7963   67.4367 H           1 KO1       0.0336
     50 H15        -9.7791    0.4908   68.7393 H           1 KO1       0.0623
     51 H16        -9.1218    1.9457   70.5485 H           1 KO1       0.0646
     52 H17       -10.1003    3.8207   69.8853 H           1 KO1       0.2100
     53 H18       -10.4471   -0.0400   71.1493 H           1 KO1       0.0649
     54 H19       -11.2836    2.3956   72.7960 H           1 KO1       0.0643
     55 H20        -9.1279    2.0798   72.8730 H           1 KO1       0.2100
     56 H21       -12.8593    0.4802   73.2385 H           1 KO1       0.0584
     57 H22       -11.8530    0.9084   74.6239 H           1 KO1       0.0584
     58 H23       -11.5551   -1.2625   72.8390 H           1 KO1       0.2095
     59 H24       -10.6930   -1.6109   68.1130 H           1 KO1       0.0740
     60 H25       -12.3034   -1.4392   67.4082 H           1 KO1       0.0740
     61 H26       -12.4469   -3.7030   67.7313 H           1 KO1       0.0695
     62 H27       -11.7302   -4.8748   69.5930 H           1 KO1       0.0290
     63 H28       -11.0664   -3.4457   70.2645 H           1 KO1       0.0290
@<TRIPOS>BOND
     1     2     1  ar
     2     2     3  ar
     3     4     2   1
     4     4     5   1
     5     4    15   1
     6    17     4   1
     7     5     6   1
     8     6     7   1
     9     6    11   1
    10     7     8   1
    11     7    10   1
    12     8     9   1
    13    11    12   1
    14    13    11   1
    15    13    14   1
    16    15    13   1
    17    15    16   1
    18    23    17   1
    19    18    19  ar
    20    18    20  ar
    21    21    18   1
    22    22    21   1
    23    21    27   1
    24    21    32   1
    25    22    23   1
    26    23    24   1
    27    24    25   1
    28    24    26   1
    29    26    27   1
    30    26    28   1
    31    28    29   1
    32    28    30   1
    33    30    31   1
    34    32    33   1
    35    33    34   1
    36    34    35   2
    37     6    36   1
    38     7    37   1
    39     8    38   1
    40     8    39   1
    41     9    40   1
    42    10    41   1
    43    11    42   1
    44    12    43   1
    45    13    44   1
    46    14    45   1
    47    15    46   1
    48    16    47   1
    49    22    48   1
    50    22    49   1
    51    23    50   1
    52    24    51   1
    53    25    52   1
    54    26    53   1
    55    28    54   1
    56    29    55   1
    57    30    56   1
    58    30    57   1
    59    31    58   1
    60    33    59   1
    61    33    60   1
    62    34    61   1
    63    35    62   1
    64    35    63   1
@<TRIPOS>SUBSTRUCTURE
     1  KO1      2

