@<TRIPOS>MOLECULE
2r23_ligand_022
    63    64
SMALL
GAST_HUCK
****
This file was generated by PARSER (from files_GN.cpp)

@<TRIPOS>ATOM
      1 OA1        -7.7952    5.0177   71.2215 O.co2       1 KO1      -0.5426
      2 C1         -8.2104    3.9450   71.9433 C.2         1 KO1       0.1068
      3 O1B        -7.3934    3.5349   72.9485 O.co2       1 KO1      -0.5426
      4 C2         -9.3589    3.1448   71.4553 C.3         1 KO1       0.2477
      5 O6        -10.4619    4.0868   71.4973 O.3         1 KO1      -0.3362
      6 C6        -11.7661    3.6209   71.0590 C.3         1 KO1       0.1171
      7 C7        -12.7587    4.8197   71.0679 C.3         1 KO1       0.1067
      8 C8        -12.3984    5.9303   70.0442 C.3         1 KO1       0.0727
      9 O8        -12.0880    5.4022   68.7528 O.3         1 KO1      -0.3924
     10 O7        -14.1049    4.3856   70.8367 O.3         1 KO1      -0.3869
     11 C5        -12.2253    2.4311   71.9461 C.3         1 KO1       0.1120
     12 O5        -12.5982    2.8678   73.2541 O.3         1 KO1      -0.3865
     13 C4        -11.1149    1.3443   72.0105 C.3         1 KO1       0.1139
     14 O4        -11.4830    0.2980   72.9121 O.3         1 KO1      -0.3865
     15 C3         -9.7172    1.9268   72.3789 C.3         1 KO1       0.1429
     16 O3         -9.6911    2.2745   73.7696 O.3         1 KO1      -0.3844
     17 O2         -9.1738    2.7745   70.0608 O.3         1 KO1      -0.3388
     18 C1         -4.3373    2.9905   68.8450 C.2         1 KO1       0.1043
     19 O1A        -4.4872    4.3290   68.7278 O.co2       1 KO1      -0.5426
     20 O1B        -3.0761    2.5022   68.8455 O.co2       1 KO1      -0.5426
     21 C2         -5.5262    2.0988   68.8628 C.3         1 KO1       0.2225
     22 C3         -6.6801    2.7538   69.6817 C.3         1 KO1       0.0360
     23 C4         -8.0485    2.0525   69.4955 C.3         1 KO1       0.0937
     24 C5         -8.3403    1.8887   67.9760 C.3         1 KO1       0.1098
     25 O5         -8.6184    3.1569   67.3719 O.3         1 KO1      -0.3866
     26 C6         -7.1348    1.2189   67.2310 C.3         1 KO1       0.1170
     27 O6         -5.9283    1.9783   67.4829 O.3         1 KO1      -0.3380
     28 C7         -7.3701    1.0227   65.6907 C.3         1 KO1       0.1067
     29 O7         -7.0428   -0.3164   65.2863 O.3         1 KO1      -0.3869
     30 C8         -6.6553    2.0145   64.7335 C.3         1 KO1       0.0727
     31 O8         -5.4613    1.4747   64.1557 O.3         1 KO1      -0.3924
     32 O2         -5.1555    0.7582   69.2896 O.3         1 KO1      -0.3323
     33 C9         -4.7167    0.4991   70.6364 C.3         1 KO1       0.0783
     34 C10        -4.1682   -0.8385   70.7217 C.2         1 KO1      -0.0639
     35 C11        -4.6800   -1.8835   70.0506 C.2         1 KO1      -0.1153
     36 H1        -11.6905    3.2680   70.0261 H           1 KO1       0.0649
     37 H2        -12.7468    5.2812   72.0574 H           1 KO1       0.0643
     38 H3        -11.5318    6.4965   70.3966 H           1 KO1       0.0584
     39 H4        -13.2350    6.6287   69.9373 H           1 KO1       0.0584
     40 H5        -12.9407    5.0873   68.3899 H           1 KO1       0.2095
     41 H6        -14.0896    3.8976   69.9879 H           1 KO1       0.2100
     42 H7        -13.1115    1.9783   71.5014 H           1 KO1       0.0647
     43 H8        -12.0230    3.6351   73.4626 H           1 KO1       0.2100
     44 H9        -11.0344    0.8801   71.0212 H           1 KO1       0.0647
     45 H10       -11.5450    0.7230   73.7927 H           1 KO1       0.2100
     46 H11        -8.9704    1.1370   72.2642 H           1 KO1       0.0667
     47 H12        -9.9534    3.2173   73.8141 H           1 KO1       0.2100
     48 H13        -6.8178    3.8022   69.3909 H           1 KO1       0.0336
     49 H14        -6.4006    2.7474   70.7299 H           1 KO1       0.0336
     50 H15        -7.9949    1.0439   69.9296 H           1 KO1       0.0623
     51 H16        -9.2260    1.2509   67.8530 H           1 KO1       0.0646
     52 H17        -9.4763    3.4399   67.7532 H           1 KO1       0.2100
     53 H18        -7.0138    0.2153   67.6537 H           1 KO1       0.0649
     54 H19        -8.4396    1.1123   65.4926 H           1 KO1       0.0643
     55 H20        -6.0986   -0.4640   65.5311 H           1 KO1       0.2100
     56 H21        -6.4266    2.9582   65.2375 H           1 KO1       0.0584
     57 H22        -7.3217    2.2369   63.8940 H           1 KO1       0.0584
     58 H23        -4.6977    1.9087   64.6001 H           1 KO1       0.2095
     59 H24        -5.5610    0.5739   71.3306 H           1 KO1       0.0740
     60 H25        -3.9523    1.2158   70.9414 H           1 KO1       0.0740
     61 H26        -3.3728   -0.9982   71.2957 H           1 KO1       0.0695
     62 H27        -4.2662   -2.7855   70.1302 H           1 KO1       0.0290
     63 H28        -5.4759   -1.7756   69.4619 H           1 KO1       0.0290
@<TRIPOS>BOND
     1     2     1  ar
     2     2     3  ar
     3     4     2   1
     4     4     5   1
     5     4    15   1
     6    17     4   1
     7     5     6   1
     8     6     7   1
     9     6    11   1
    10     7     8   1
    11     7    10   1
    12     8     9   1
    13    11    12   1
    14    13    11   1
    15    13    14   1
    16    15    13   1
    17    15    16   1
    18    23    17   1
    19    18    19  ar
    20    18    20  ar
    21    21    18   1
    22    22    21   1
    23    21    27   1
    24    21    32   1
    25    22    23   1
    26    23    24   1
    27    24    25   1
    28    24    26   1
    29    26    27   1
    30    26    28   1
    31    28    29   1
    32    28    30   1
    33    30    31   1
    34    32    33   1
    35    33    34   1
    36    34    35   2
    37     6    36   1
    38     7    37   1
    39     8    38   1
    40     8    39   1
    41     9    40   1
    42    10    41   1
    43    11    42   1
    44    12    43   1
    45    13    44   1
    46    14    45   1
    47    15    46   1
    48    16    47   1
    49    22    48   1
    50    22    49   1
    51    23    50   1
    52    24    51   1
    53    25    52   1
    54    26    53   1
    55    28    54   1
    56    29    55   1
    57    30    56   1
    58    30    57   1
    59    31    58   1
    60    33    59   1
    61    33    60   1
    62    34    61   1
    63    35    62   1
    64    35    63   1
@<TRIPOS>SUBSTRUCTURE
     1  KO1      2

