@<TRIPOS>MOLECULE
2r23_ligand_035
    63    64
SMALL
GAST_HUCK
****
This file was generated by PARSER (from files_GN.cpp)

@<TRIPOS>ATOM
      1 OA1        -8.9056    0.5323   71.6656 O.co2       1 KO1      -0.5426
      2 C1         -9.8531    0.0332   70.8350 C.2         1 KO1       0.1068
      3 O1B       -10.2705   -1.2373   71.0447 O.co2       1 KO1      -0.5426
      4 C2        -10.4483    0.8569   69.7535 C.3         1 KO1       0.2477
      5 O6        -10.2091    2.2699   70.0167 O.3         1 KO1      -0.3362
      6 C6        -10.7780    3.2078   69.0666 C.3         1 KO1       0.1171
      7 C7        -10.2447    4.6544   69.3431 C.3         1 KO1       0.1067
      8 C8        -10.5259    5.2692   70.7437 C.3         1 KO1       0.0727
      9 O8        -10.4916    4.2983   71.7885 O.3         1 KO1      -0.3924
     10 O7         -8.8272    4.6485   69.1440 O.3         1 KO1      -0.3869
     11 C5        -12.3286    3.0649   68.9925 C.3         1 KO1       0.1120
     12 O5        -12.9848    3.5592   70.1592 O.3         1 KO1      -0.3865
     13 C4        -12.7137    1.5764   68.7425 C.3         1 KO1       0.1139
     14 O4        -14.1275    1.3978   68.8396 O.3         1 KO1      -0.3865
     15 C3        -11.9908    0.5943   69.7111 C.3         1 KO1       0.1429
     16 O3        -12.5799    0.6561   71.0163 O.3         1 KO1      -0.3844
     17 O2         -9.9190    0.5038   68.4483 O.3         1 KO1      -0.3388
     18 C1         -5.3576    2.5754   68.8665 C.2         1 KO1       0.1043
     19 O1A        -5.3911    3.7326   68.1495 O.co2       1 KO1      -0.5426
     20 O1B        -4.4395    2.4810   69.8565 O.co2       1 KO1      -0.5426
     21 C2         -6.1012    1.3819   68.3782 C.3         1 KO1       0.2225
     22 C3         -7.5929    1.4653   68.8632 C.3         1 KO1       0.0360
     23 C4         -8.5075    0.4473   68.1212 C.3         1 KO1       0.0937
     24 C5         -8.3804    0.6868   66.5886 C.3         1 KO1       0.1098
     25 O5         -8.9202    1.9692   66.2533 O.3         1 KO1      -0.3866
     26 C6         -6.8881    0.5985   66.1329 C.3         1 KO1       0.1170
     27 O6         -6.0543    1.4853   66.9292 O.3         1 KO1      -0.3380
     28 C7         -6.6207    0.8987   64.6145 C.3         1 KO1       0.1067
     29 O7         -6.1304    2.2276   64.3985 O.3         1 KO1      -0.3869
     30 C8         -7.8074    0.6570   63.6372 C.3         1 KO1       0.0727
     31 O8         -8.4481    1.8830   63.2828 O.3         1 KO1      -0.3924
     32 O2         -5.3790    0.1570   68.7301 O.3         1 KO1      -0.3323
     33 C9         -5.5613   -0.5745   69.9700 C.3         1 KO1       0.0783
     34 C10        -5.3638    0.1950   71.1911 C.2         1 KO1      -0.0639
     35 C11        -4.1562    0.4617   71.7169 C.2         1 KO1      -0.1153
     36 H1        -10.3985    2.9646   68.0651 H           1 KO1       0.0649
     37 H2        -10.6729    5.3274   68.5903 H           1 KO1       0.0643
     38 H3        -11.4933    5.7728   70.7601 H           1 KO1       0.0584
     39 H4         -9.7644    6.0287   70.9626 H           1 KO1       0.0584
     40 H5         -9.5656    3.9743   71.8046 H           1 KO1       0.2095
     41 H6         -8.5974    5.5654   68.8772 H           1 KO1       0.2100
     42 H7        -12.6971    3.6606   68.1510 H           1 KO1       0.0647
     43 H8        -12.3789    3.3712   70.9026 H           1 KO1       0.2100
     44 H9        -12.4302    1.3193   67.7174 H           1 KO1       0.0647
     45 H10       -14.5060    1.8903   68.0802 H           1 KO1       0.2100
     46 H11       -12.1692   -0.4216   69.3441 H           1 KO1       0.0667
     47 H12       -12.0153    1.2622   71.5339 H           1 KO1       0.2100
     48 H13        -7.9783    2.4730   68.6616 H           1 KO1       0.0336
     49 H14        -7.6277    1.3114   69.9450 H           1 KO1       0.0336
     50 H15        -8.1699   -0.5720   68.3421 H           1 KO1       0.0623
     51 H16        -8.9622   -0.0870   66.0746 H           1 KO1       0.0646
     52 H17        -9.8935    1.8549   66.3144 H           1 KO1       0.2100
     53 H18        -6.5616   -0.4355   66.3140 H           1 KO1       0.0649
     54 H19        -5.8095    0.2307   64.2968 H           1 KO1       0.0643
     55 H20        -5.2003    2.2378   64.7322 H           1 KO1       0.2100
     56 H21        -8.5391   -0.0163   64.0917 H           1 KO1       0.0584
     57 H22        -7.4358    0.1977   62.7163 H           1 KO1       0.0584
     58 H23        -9.0943    1.6541   62.5876 H           1 KO1       0.2095
     59 H24        -4.8545   -1.4126   69.9625 H           1 KO1       0.0740
     60 H25        -6.5641   -1.0176   69.9927 H           1 KO1       0.0740
     61 H26        -6.1726    0.5124   71.6785 H           1 KO1       0.0695
     62 H27        -4.0951    0.9952   72.5572 H           1 KO1       0.0290
     63 H28        -3.3197    0.1395   71.2820 H           1 KO1       0.0290
@<TRIPOS>BOND
     1     2     1  ar
     2     2     3  ar
     3     4     2   1
     4     4     5   1
     5     4    15   1
     6    17     4   1
     7     5     6   1
     8     6     7   1
     9     6    11   1
    10     7     8   1
    11     7    10   1
    12     8     9   1
    13    11    12   1
    14    13    11   1
    15    13    14   1
    16    15    13   1
    17    15    16   1
    18    23    17   1
    19    18    19  ar
    20    18    20  ar
    21    21    18   1
    22    22    21   1
    23    21    27   1
    24    21    32   1
    25    22    23   1
    26    23    24   1
    27    24    25   1
    28    24    26   1
    29    26    27   1
    30    26    28   1
    31    28    29   1
    32    28    30   1
    33    30    31   1
    34    32    33   1
    35    33    34   1
    36    34    35   2
    37     6    36   1
    38     7    37   1
    39     8    38   1
    40     8    39   1
    41     9    40   1
    42    10    41   1
    43    11    42   1
    44    12    43   1
    45    13    44   1
    46    14    45   1
    47    15    46   1
    48    16    47   1
    49    22    48   1
    50    22    49   1
    51    23    50   1
    52    24    51   1
    53    25    52   1
    54    26    53   1
    55    28    54   1
    56    29    55   1
    57    30    56   1
    58    30    57   1
    59    31    58   1
    60    33    59   1
    61    33    60   1
    62    34    61   1
    63    35    62   1
    64    35    63   1
@<TRIPOS>SUBSTRUCTURE
     1  KO1      2

