@<TRIPOS>MOLECULE
2r23_ligand_030
    63    64
SMALL
GAST_HUCK
****
This file was generated by PARSER (from files_GN.cpp)

@<TRIPOS>ATOM
      1 OA1        -7.9875    4.6790   72.0161 O.co2       1 KO1      -0.5426
      2 C1         -8.2154    5.3525   70.8520 C.2         1 KO1       0.1068
      3 O1B        -7.5087    6.4863   70.6379 O.co2       1 KO1      -0.5426
      4 C2         -9.2371    4.8779   69.8882 C.3         1 KO1       0.2477
      5 O6         -9.4958    5.9438   68.9424 O.3         1 KO1      -0.3362
      6 C6        -10.5612    5.7947   67.9760 C.3         1 KO1       0.1171
      7 C7        -10.5435    7.0757   67.0900 C.3         1 KO1       0.1067
      8 C8        -11.7042    7.2266   66.0712 C.3         1 KO1       0.0727
      9 O8        -12.9134    7.6994   66.6677 O.3         1 KO1      -0.3924
     10 O7        -10.4530    8.2623   67.8873 O.3         1 KO1      -0.3869
     11 C5        -11.9099    5.4641   68.6824 C.3         1 KO1       0.1120
     12 O5        -12.4002    6.5978   69.4100 O.3         1 KO1      -0.3865
     13 C4        -11.7155    4.2521   69.6335 C.3         1 KO1       0.1139
     14 O4        -12.9249    3.9594   70.3353 O.3         1 KO1      -0.3865
     15 C3        -10.5631    4.5079   70.6382 C.3         1 KO1       0.1429
     16 O3        -10.9358    5.5504   71.5450 O.3         1 KO1      -0.3844
     17 O2         -8.7405    3.6674   69.2418 O.3         1 KO1      -0.3388
     18 C1         -6.5593    1.0213   65.6522 C.2         1 KO1       0.1043
     19 O1A        -5.8336    0.9225   64.5143 O.co2       1 KO1      -0.5426
     20 O1B        -6.6662   -0.1227   66.3711 O.co2       1 KO1      -0.5426
     21 C2         -6.6292    2.3340   66.3550 C.3         1 KO1       0.2225
     22 C3         -7.7468    2.3887   67.4469 C.3         1 KO1       0.0360
     23 C4         -7.6549    3.6981   68.2790 C.3         1 KO1       0.0937
     24 C5         -6.2281    3.8051   68.9111 C.3         1 KO1       0.1098
     25 O5         -6.0959    2.8254   69.9501 O.3         1 KO1      -0.3866
     26 C6         -5.1217    3.6448   67.8213 C.3         1 KO1       0.1170
     27 O6         -5.3460    2.4584   67.0191 O.3         1 KO1      -0.3380
     28 C7         -3.6622    3.6643   68.3878 C.3         1 KO1       0.1067
     29 O7         -2.7659    4.0832   67.3560 O.3         1 KO1      -0.3869
     30 C8         -3.1370    2.3336   68.9836 C.3         1 KO1       0.0727
     31 O8         -1.7856    2.4649   69.4137 O.3         1 KO1      -0.3924
     32 O2         -6.7512    3.4433   65.4171 O.3         1 KO1      -0.3323
     33 C9         -7.6345    3.4848   64.2758 C.3         1 KO1       0.0783
     34 C10        -9.0567    3.4011   64.5679 C.2         1 KO1      -0.0639
     35 C11        -9.9236    4.4081   64.3730 C.2         1 KO1      -0.1153
     36 H1        -10.3188    4.9488   67.3239 H           1 KO1       0.0649
     37 H2         -9.6177    7.0430   66.5097 H           1 KO1       0.0643
     38 H3        -11.9189    6.2642   65.5987 H           1 KO1       0.0584
     39 H4        -11.4183    7.9344   65.2854 H           1 KO1       0.0584
     40 H5        -12.7088    8.6032   66.9885 H           1 KO1       0.2095
     41 H6        -11.2777    8.2953   68.4127 H           1 KO1       0.2100
     42 H7        -12.6609    5.2035   67.9311 H           1 KO1       0.0647
     43 H8        -13.2401    6.2983   69.8196 H           1 KO1       0.2100
     44 H9        -11.4766    3.3684   69.0336 H           1 KO1       0.0647
     45 H10       -13.5905    3.7570   69.6430 H           1 KO1       0.2100
     46 H11       -10.4051    3.6020   71.2288 H           1 KO1       0.0667
     47 H12       -11.7614    5.2414   71.9714 H           1 KO1       0.2100
     48 H13        -7.6255    1.5443   68.1321 H           1 KO1       0.0336
     49 H14        -8.7374    2.3122   66.9983 H           1 KO1       0.0336
     50 H15        -7.7999    4.5438   67.5958 H           1 KO1       0.0623
     51 H16        -6.1101    4.7981   69.3711 H           1 KO1       0.0646
     52 H17        -6.7813    3.0594   70.6165 H           1 KO1       0.2100
     53 H18        -5.2057    4.5192   67.1697 H           1 KO1       0.0649
     54 H19        -3.5985    4.4255   69.1723 H           1 KO1       0.0643
     55 H20        -2.8761    3.4451   66.6231 H           1 KO1       0.2100
     56 H21        -3.1785    1.5424   68.2403 H           1 KO1       0.0584
     57 H22        -3.7266    2.0289   69.8443 H           1 KO1       0.0584
     58 H23        -1.5089    1.5599   69.6745 H           1 KO1       0.2095
     59 H24        -7.3838    2.6774   63.5871 H           1 KO1       0.0740
     60 H25        -7.4076    4.4201   63.7553 H           1 KO1       0.0740
     61 H26        -9.4193    2.5260   64.8629 H           1 KO1       0.0695
     62 H27       -10.8934    4.2652   64.5520 H           1 KO1       0.0290
     63 H28        -9.6253    5.2928   64.0327 H           1 KO1       0.0290
@<TRIPOS>BOND
     1     2     1  ar
     2     2     3  ar
     3     4     2   1
     4     4     5   1
     5     4    15   1
     6    17     4   1
     7     5     6   1
     8     6     7   1
     9     6    11   1
    10     7     8   1
    11     7    10   1
    12     8     9   1
    13    11    12   1
    14    13    11   1
    15    13    14   1
    16    15    13   1
    17    15    16   1
    18    23    17   1
    19    18    19  ar
    20    18    20  ar
    21    21    18   1
    22    22    21   1
    23    21    27   1
    24    21    32   1
    25    22    23   1
    26    23    24   1
    27    24    25   1
    28    24    26   1
    29    26    27   1
    30    26    28   1
    31    28    29   1
    32    28    30   1
    33    30    31   1
    34    32    33   1
    35    33    34   1
    36    34    35   2
    37     6    36   1
    38     7    37   1
    39     8    38   1
    40     8    39   1
    41     9    40   1
    42    10    41   1
    43    11    42   1
    44    12    43   1
    45    13    44   1
    46    14    45   1
    47    15    46   1
    48    16    47   1
    49    22    48   1
    50    22    49   1
    51    23    50   1
    52    24    51   1
    53    25    52   1
    54    26    53   1
    55    28    54   1
    56    29    55   1
    57    30    56   1
    58    30    57   1
    59    31    58   1
    60    33    59   1
    61    33    60   1
    62    34    61   1
    63    35    62   1
    64    35    63   1
@<TRIPOS>SUBSTRUCTURE
     1  KO1      2

