@<TRIPOS>MOLECULE
2r23_ligand_027
    63    64
SMALL
GAST_HUCK
****
This file was generated by PARSER (from files_GN.cpp)

@<TRIPOS>ATOM
      1 OA1        -9.6539    1.4836   71.7355 O.co2       1 KO1      -0.5426
      2 C1         -9.8228    0.2387   71.2274 C.2         1 KO1       0.1068
      3 O1B        -9.3687   -0.8075   71.9595 O.co2       1 KO1      -0.5426
      4 C2        -10.5028    0.0685   69.9255 C.3         1 KO1       0.2477
      5 O6        -11.7872    0.7130   70.1189 O.3         1 KO1      -0.3362
      6 C6        -12.7029    0.7803   68.9943 C.3         1 KO1       0.1171
      7 C7        -13.9571    1.5843   69.4551 C.3         1 KO1       0.1067
      8 C8        -13.6354    3.0394   69.8928 C.3         1 KO1       0.0727
      9 O8        -13.2615    3.8677   68.7870 O.3         1 KO1      -0.3924
     10 O7        -14.9644    1.6038   68.4404 O.3         1 KO1      -0.3869
     11 C5        -13.0217   -0.6537   68.4615 C.3         1 KO1       0.1120
     12 O5        -13.9022   -1.3614   69.3425 O.3         1 KO1      -0.3865
     13 C4        -11.7116   -1.4690   68.2665 C.3         1 KO1       0.1139
     14 O4        -12.0049   -2.8226   67.9005 O.3         1 KO1      -0.3865
     15 C3        -10.8023   -1.4212   69.5288 C.3         1 KO1       0.1429
     16 O3        -11.4304   -2.1343   70.6057 O.3         1 KO1      -0.3844
     17 O2         -9.7926    0.8225   68.9059 O.3         1 KO1      -0.3388
     18 C1         -4.8012    1.4873   69.1894 C.2         1 KO1       0.1043
     19 O1A        -4.9914    2.3695   70.1927 O.co2       1 KO1      -0.5426
     20 O1B        -3.5330    1.3270   68.7411 O.co2       1 KO1      -0.5426
     21 C2         -5.9208    0.7435   68.5508 C.3         1 KO1       0.2225
     22 C3         -7.3061    1.0099   69.2382 C.3         1 KO1       0.0360
     23 C4         -8.4904    0.4845   68.3710 C.3         1 KO1       0.0937
     24 C5         -8.4044    1.1217   66.9539 C.3         1 KO1       0.1098
     25 O5         -8.6424    2.5292   67.0349 O.3         1 KO1      -0.3866
     26 C6         -7.0054    0.8409   66.3196 C.3         1 KO1       0.1170
     27 O6         -5.9515    1.2807   67.2043 O.3         1 KO1      -0.3380
     28 C7         -6.7970    1.4568   64.8966 C.3         1 KO1       0.1067
     29 O7         -5.7991    0.7253   64.1758 O.3         1 KO1      -0.3869
     30 C8         -6.4594    2.9724   64.8165 C.3         1 KO1       0.0727
     31 O8         -5.8804    3.4687   66.0249 O.3         1 KO1      -0.3924
     32 O2         -5.6747   -0.6905   68.4688 O.3         1 KO1      -0.3323
     33 C9         -4.8655   -1.4471   69.4144 C.3         1 KO1       0.0783
     34 C10        -5.3875   -1.5490   70.7642 C.2         1 KO1      -0.0639
     35 C11        -6.6443   -1.9324   71.0337 C.2         1 KO1      -0.1153
     36 H1        -12.2312    1.3450   68.1788 H           1 KO1       0.0649
     37 H2        -14.3912    1.0737   70.3198 H           1 KO1       0.0643
     38 H3        -12.8136    3.0431   70.6154 H           1 KO1       0.0584
     39 H4        -14.5149    3.4820   70.3792 H           1 KO1       0.0584
     40 H5        -14.1114    4.0750   68.3330 H           1 KO1       0.2095
     41 H6        -14.5207    1.9202   67.6261 H           1 KO1       0.2100
     42 H7        -13.5273   -0.5687   67.4936 H           1 KO1       0.0647
     43 H8        -14.7919   -0.9588   69.2145 H           1 KO1       0.2100
     44 H9        -11.1651   -1.0326   67.4230 H           1 KO1       0.0647
     45 H10       -12.4899   -3.1978   68.6641 H           1 KO1       0.2100
     46 H11        -9.8682   -1.9461   69.3049 H           1 KO1       0.0667
     47 H12       -12.2053   -1.6066   70.8589 H           1 KO1       0.2100
     48 H13        -7.4359    2.0842   69.3983 H           1 KO1       0.0336
     49 H14        -7.3287    0.5351   70.2213 H           1 KO1       0.0336
     50 H15        -8.4042   -0.6001   68.2648 H           1 KO1       0.0623
     51 H16        -9.1793    0.6834   66.3225 H           1 KO1       0.0646
     52 H17        -9.5947    2.6199   67.2774 H           1 KO1       0.2100
     53 H18        -6.9359   -0.2490   66.1829 H           1 KO1       0.0649
     54 H19        -7.7310    1.3128   64.3531 H           1 KO1       0.0643
     55 H20        -5.7363   -0.1436   64.6278 H           1 KO1       0.2100
     56 H21        -7.3647    3.5480   64.5977 H           1 KO1       0.0584
     57 H22        -5.7616    3.1618   63.9952 H           1 KO1       0.0584
     58 H23        -4.9052    3.3642   65.9203 H           1 KO1       0.2095
     59 H24        -3.8638   -1.0119   69.4402 H           1 KO1       0.0740
     60 H25        -4.7623   -2.4659   69.0225 H           1 KO1       0.0740
     61 H26        -4.7787   -1.3505   71.5290 H           1 KO1       0.0695
     62 H27        -6.9511   -2.0111   71.9765 H           1 KO1       0.0290
     63 H28        -7.2786   -2.1592   70.2998 H           1 KO1       0.0290
@<TRIPOS>BOND
     1     2     1  ar
     2     2     3  ar
     3     4     2   1
     4     4     5   1
     5     4    15   1
     6    17     4   1
     7     5     6   1
     8     6     7   1
     9     6    11   1
    10     7     8   1
    11     7    10   1
    12     8     9   1
    13    11    12   1
    14    13    11   1
    15    13    14   1
    16    15    13   1
    17    15    16   1
    18    23    17   1
    19    18    19  ar
    20    18    20  ar
    21    21    18   1
    22    22    21   1
    23    21    27   1
    24    21    32   1
    25    22    23   1
    26    23    24   1
    27    24    25   1
    28    24    26   1
    29    26    27   1
    30    26    28   1
    31    28    29   1
    32    28    30   1
    33    30    31   1
    34    32    33   1
    35    33    34   1
    36    34    35   2
    37     6    36   1
    38     7    37   1
    39     8    38   1
    40     8    39   1
    41     9    40   1
    42    10    41   1
    43    11    42   1
    44    12    43   1
    45    13    44   1
    46    14    45   1
    47    15    46   1
    48    16    47   1
    49    22    48   1
    50    22    49   1
    51    23    50   1
    52    24    51   1
    53    25    52   1
    54    26    53   1
    55    28    54   1
    56    29    55   1
    57    30    56   1
    58    30    57   1
    59    31    58   1
    60    33    59   1
    61    33    60   1
    62    34    61   1
    63    35    62   1
    64    35    63   1
@<TRIPOS>SUBSTRUCTURE
     1  KO1      2

