@<TRIPOS>MOLECULE
2r23_ligand_033
    63    64
SMALL
GAST_HUCK
****
This file was generated by PARSER (from files_GN.cpp)

@<TRIPOS>ATOM
      1 OA1       -12.4627    5.8553   67.3105 O.co2       1 KO1      -0.5426
      2 C1        -12.3873    4.7801   68.1285 C.2         1 KO1       0.1068
      3 O1B       -12.0156    4.9918   69.4125 O.co2       1 KO1      -0.5426
      4 C2        -12.6735    3.4028   67.6418 C.3         1 KO1       0.2477
      5 O6        -12.9374    3.4513   66.2152 O.3         1 KO1      -0.3362
      6 C6        -13.3894    2.2425   65.5595 C.3         1 KO1       0.1171
      7 C7        -13.5259    2.4876   64.0208 C.3         1 KO1       0.1067
      8 C8        -14.3626    3.7172   63.5676 C.3         1 KO1       0.0727
      9 O8        -14.1673    4.8678   64.3861 O.3         1 KO1      -0.3924
     10 O7        -12.2244    2.6067   63.4467 O.3         1 KO1      -0.3869
     11 C5        -14.6517    1.6313   66.2460 C.3         1 KO1       0.1120
     12 O5        -15.8382    2.3848   66.0003 O.3         1 KO1      -0.3865
     13 C4        -14.4134    1.5144   67.7776 C.3         1 KO1       0.1139
     14 O4        -15.5863    1.0370   68.4406 O.3         1 KO1      -0.3865
     15 C3        -13.9353    2.8584   68.3930 C.3         1 KO1       0.1429
     16 O3        -15.0075    3.8059   68.3929 O.3         1 KO1      -0.3844
     17 O2        -11.5684    2.5238   67.9798 O.3         1 KO1      -0.3388
     18 C1         -8.2378    0.6552   64.9714 C.2         1 KO1       0.1043
     19 O1A        -7.3369    0.6207   63.9600 O.co2       1 KO1      -0.5426
     20 O1B        -9.0714   -0.4053   65.0705 O.co2       1 KO1      -0.5426
     21 C2         -8.3788    1.8225   65.8838 C.3         1 KO1       0.2225
     22 C3         -9.9023    2.0196   66.2085 C.3         1 KO1       0.0360
     23 C4        -10.2012    2.7486   67.5509 C.3         1 KO1       0.0937
     24 C5         -9.2720    2.2223   68.6824 C.3         1 KO1       0.1098
     25 O5         -9.6191    0.8801   69.0414 O.3         1 KO1      -0.3866
     26 C6         -7.7784    2.2707   68.2355 C.3         1 KO1       0.1170
     27 O6         -7.6264    1.4472   67.0641 O.3         1 KO1      -0.3380
     28 C7         -6.7676    1.8256   69.3351 C.3         1 KO1       0.1067
     29 O7         -6.9094    2.6620   70.4843 O.3         1 KO1      -0.3869
     30 C8         -5.3010    1.8609   68.8396 C.3         1 KO1       0.0727
     31 O8         -4.4263    2.3821   69.8345 O.3         1 KO1      -0.3924
     32 O2         -7.6630    2.8962   65.2194 O.3         1 KO1      -0.3323
     33 C9         -7.9483    4.3069   65.2794 C.3         1 KO1       0.0783
     34 C10        -9.0197    4.6633   64.3744 C.2         1 KO1      -0.0639
     35 C11       -10.1922    5.1847   64.7590 C.2         1 KO1      -0.1153
     36 H1        -12.6078    1.4910   65.6779 H           1 KO1       0.0649
     37 H2        -13.9734    1.5963   63.5709 H           1 KO1       0.0643
     38 H3        -15.4260    3.4863   63.5677 H           1 KO1       0.0584
     39 H4        -14.0882    3.9811   62.5435 H           1 KO1       0.0584
     40 H5        -13.3807    5.3186   64.0160 H           1 KO1       0.2095
     41 H6        -11.8152    3.3799   63.8864 H           1 KO1       0.2100
     42 H7        -14.8224    0.6237   65.8475 H           1 KO1       0.0647
     43 H8        -16.1811    2.0464   65.1471 H           1 KO1       0.2100
     44 H9        -13.6398    0.7572   67.9443 H           1 KO1       0.0647
     45 H10       -16.2740    1.7171   68.2796 H           1 KO1       0.2100
     46 H11       -13.6787    2.6750   69.4404 H           1 KO1       0.0667
     47 H12       -15.1806    4.0114   67.4511 H           1 KO1       0.2100
     48 H13       -10.3929    1.0495   66.2871 H           1 KO1       0.0336
     49 H14       -10.3751    2.5529   65.3895 H           1 KO1       0.0336
     50 H15       -10.0103    3.8171   67.4334 H           1 KO1       0.0623
     51 H16        -9.4088    2.8530   69.5650 H           1 KO1       0.0646
     52 H17       -10.4974    0.9385   69.4735 H           1 KO1       0.2100
     53 H18        -7.5212    3.3029   67.9968 H           1 KO1       0.0649
     54 H19        -6.9941    0.8038   69.6503 H           1 KO1       0.0643
     55 H20        -6.7684    3.5754   70.1579 H           1 KO1       0.2100
     56 H21        -5.2104    2.4960   67.9579 H           1 KO1       0.0584
     57 H22        -4.9759    0.8516   68.5753 H           1 KO1       0.0584
     58 H23        -3.5225    2.1882   69.5067 H           1 KO1       0.2095
     59 H24        -7.0503    4.8204   64.9300 H           1 KO1       0.0740
     60 H25        -8.1245    4.6504   66.2937 H           1 KO1       0.0740
     61 H26        -8.8571    4.5443   63.4027 H           1 KO1       0.0695
     62 H27       -10.8755    5.4297   64.0828 H           1 KO1       0.0290
     63 H28       -10.3955    5.3357   65.7169 H           1 KO1       0.0290
@<TRIPOS>BOND
     1     2     1  ar
     2     2     3  ar
     3     4     2   1
     4     4     5   1
     5     4    15   1
     6    17     4   1
     7     5     6   1
     8     6     7   1
     9     6    11   1
    10     7     8   1
    11     7    10   1
    12     8     9   1
    13    11    12   1
    14    13    11   1
    15    13    14   1
    16    15    13   1
    17    15    16   1
    18    23    17   1
    19    18    19  ar
    20    18    20  ar
    21    21    18   1
    22    22    21   1
    23    21    27   1
    24    21    32   1
    25    22    23   1
    26    23    24   1
    27    24    25   1
    28    24    26   1
    29    26    27   1
    30    26    28   1
    31    28    29   1
    32    28    30   1
    33    30    31   1
    34    32    33   1
    35    33    34   1
    36    34    35   2
    37     6    36   1
    38     7    37   1
    39     8    38   1
    40     8    39   1
    41     9    40   1
    42    10    41   1
    43    11    42   1
    44    12    43   1
    45    13    44   1
    46    14    45   1
    47    15    46   1
    48    16    47   1
    49    22    48   1
    50    22    49   1
    51    23    50   1
    52    24    51   1
    53    25    52   1
    54    26    53   1
    55    28    54   1
    56    29    55   1
    57    30    56   1
    58    30    57   1
    59    31    58   1
    60    33    59   1
    61    33    60   1
    62    34    61   1
    63    35    62   1
    64    35    63   1
@<TRIPOS>SUBSTRUCTURE
     1  KO1      2

