@<TRIPOS>MOLECULE
2r23_ligand_015
    63    64
SMALL
GAST_HUCK
****
This file was generated by PARSER (from files_GN.cpp)

@<TRIPOS>ATOM
      1 OA1       -10.8258    1.1614   65.9436 O.co2       1 KO1      -0.5426
      2 C1         -9.6492    0.6679   66.3952 C.2         1 KO1       0.1068
      3 O1B        -9.5280   -0.6643   66.5253 O.co2       1 KO1      -0.5426
      4 C2         -8.5101    1.5667   66.7102 C.3         1 KO1       0.2477
      5 O6         -8.7684    2.8322   66.0631 O.3         1 KO1      -0.3362
      6 C6         -7.7686    3.8646   66.1752 C.3         1 KO1       0.1171
      7 C7         -8.3531    5.1934   65.5988 C.3         1 KO1       0.1067
      8 C8         -9.3177    5.9174   66.5658 C.3         1 KO1       0.0727
      9 O8         -9.9146    5.0406   67.5203 O.3         1 KO1      -0.3924
     10 O7         -7.3049    6.1133   65.2778 O.3         1 KO1      -0.3869
     11 C5         -6.4683    3.3763   65.4788 C.3         1 KO1       0.1120
     12 O5         -6.6427    3.2609   64.0654 O.3         1 KO1      -0.3865
     13 C4         -6.0295    2.0145   66.0828 C.3         1 KO1       0.1139
     14 O4         -4.9270    1.4572   65.3674 O.3         1 KO1      -0.3865
     15 C3         -7.1818    0.9677   66.1298 C.3         1 KO1       0.1429
     16 O3         -7.3886    0.4612   64.7995 O.3         1 KO1      -0.3844
     17 O2         -8.6135    1.8391   68.1321 O.3         1 KO1      -0.3388
     18 C1         -7.0832   -1.7734   71.2981 C.2         1 KO1       0.1043
     19 O1A        -6.4551   -2.8518   70.7846 O.co2       1 KO1      -0.5426
     20 O1B        -8.2231   -2.0201   71.9778 O.co2       1 KO1      -0.5426
     21 C2         -6.8199   -0.4018   70.7658 C.3         1 KO1       0.2225
     22 C3         -7.7719   -0.0802   69.5573 C.3         1 KO1       0.0360
     23 C4         -7.6974    1.4278   69.1716 C.3         1 KO1       0.0937
     24 C5         -8.0062    2.3105   70.4186 C.3         1 KO1       0.1098
     25 O5         -9.3838    2.1810   70.7719 O.3         1 KO1      -0.3866
     26 C6         -7.0591    1.9272   71.5955 C.3         1 KO1       0.1170
     27 O6         -7.1114    0.5098   71.8540 O.3         1 KO1      -0.3380
     28 C7         -7.2570    2.6920   72.9464 C.3         1 KO1       0.1067
     29 O7         -6.2125    2.2922   73.8431 O.3         1 KO1      -0.3869
     30 C8         -8.6077    2.4562   73.6849 C.3         1 KO1       0.0727
     31 O8         -9.6276    3.3485   73.2227 O.3         1 KO1      -0.3924
     32 O2         -5.4750   -0.1056   70.2996 O.3         1 KO1      -0.3323
     33 C9         -4.3734   -1.0461   70.3409 C.3         1 KO1       0.0783
     34 C10        -4.5068   -2.1536   69.4101 C.2         1 KO1      -0.0639
     35 C11        -5.1372   -2.0806   68.2181 C.2         1 KO1      -0.1153
     36 H1         -7.5464    4.0511   67.2373 H           1 KO1       0.0649
     37 H2         -8.8960    4.9745   64.6792 H           1 KO1       0.0643
     38 H3        -10.1322    6.3905   66.0022 H           1 KO1       0.0584
     39 H4         -8.7881    6.7123   67.1132 H           1 KO1       0.0584
     40 H5        -10.4877    5.6151   68.0786 H           1 KO1       0.2095
     41 H6         -7.0674    5.9511   64.3415 H           1 KO1       0.2100
     42 H7         -5.6652    4.0969   65.6570 H           1 KO1       0.0647
     43 H8         -6.4463    4.1544   63.7063 H           1 KO1       0.2100
     44 H9         -5.6787    2.2025   67.1084 H           1 KO1       0.0647
     45 H10        -4.2180    2.1234   65.4507 H           1 KO1       0.2100
     46 H11        -6.8598    0.1142   66.7335 H           1 KO1       0.0667
     47 H12        -6.5853   -0.0763   64.5981 H           1 KO1       0.2100
     48 H13        -8.8131   -0.3350   69.8025 H           1 KO1       0.0336
     49 H14        -7.4764   -0.6945   68.6959 H           1 KO1       0.0336
     50 H15        -6.6787    1.6557   68.8607 H           1 KO1       0.0623
     51 H16        -7.8283    3.3555   70.1621 H           1 KO1       0.0646
     52 H17        -9.4608    1.3135   71.2177 H           1 KO1       0.2100
     53 H18        -6.0424    2.1692   71.2758 H           1 KO1       0.0649
     54 H19        -7.1465    3.7636   72.7765 H           1 KO1       0.0643
     55 H20        -5.3868    2.6412   73.4411 H           1 KO1       0.2100
     56 H21        -8.4847    2.6433   74.7596 H           1 KO1       0.0584
     57 H22        -8.9499    1.4222   73.5612 H           1 KO1       0.0584
     58 H23       -10.4264    3.0940   73.7296 H           1 KO1       0.2095
     59 H24        -4.1896   -1.4271   71.3554 H           1 KO1       0.0740
     60 H25        -3.4784   -0.4873   70.0447 H           1 KO1       0.0740
     61 H26        -4.1617   -3.0497   69.6936 H           1 KO1       0.0695
     62 H27        -5.2224   -2.8916   67.6514 H           1 KO1       0.0290
     63 H28        -5.4640   -1.2102   67.8599 H           1 KO1       0.0290
@<TRIPOS>BOND
     1     2     1  ar
     2     2     3  ar
     3     4     2   1
     4     4     5   1
     5     4    15   1
     6    17     4   1
     7     5     6   1
     8     6     7   1
     9     6    11   1
    10     7     8   1
    11     7    10   1
    12     8     9   1
    13    11    12   1
    14    13    11   1
    15    13    14   1
    16    15    13   1
    17    15    16   1
    18    23    17   1
    19    18    19  ar
    20    18    20  ar
    21    21    18   1
    22    22    21   1
    23    21    27   1
    24    21    32   1
    25    22    23   1
    26    23    24   1
    27    24    25   1
    28    24    26   1
    29    26    27   1
    30    26    28   1
    31    28    29   1
    32    28    30   1
    33    30    31   1
    34    32    33   1
    35    33    34   1
    36    34    35   2
    37     6    36   1
    38     7    37   1
    39     8    38   1
    40     8    39   1
    41     9    40   1
    42    10    41   1
    43    11    42   1
    44    12    43   1
    45    13    44   1
    46    14    45   1
    47    15    46   1
    48    16    47   1
    49    22    48   1
    50    22    49   1
    51    23    50   1
    52    24    51   1
    53    25    52   1
    54    26    53   1
    55    28    54   1
    56    29    55   1
    57    30    56   1
    58    30    57   1
    59    31    58   1
    60    33    59   1
    61    33    60   1
    62    34    61   1
    63    35    62   1
    64    35    63   1
@<TRIPOS>SUBSTRUCTURE
     1  KO1      2

