@<TRIPOS>MOLECULE
2r23_ligand_012
    63    64
SMALL
GAST_HUCK
****
This file was generated by PARSER (from files_GN.cpp)

@<TRIPOS>ATOM
      1 OA1        -3.0552    3.6263   68.2592 O.co2       1 KO1      -0.5426
      2 C1         -4.2935    3.7199   68.8139 C.2         1 KO1       0.1068
      3 O1B        -4.9731    4.8763   68.6353 O.co2       1 KO1      -0.5426
      4 C2         -4.9462    2.5420   69.4324 C.3         1 KO1       0.2477
      5 O6         -5.8279    3.0294   70.4832 O.3         1 KO1      -0.3362
      6 C6         -6.5628    2.0493   71.2493 C.3         1 KO1       0.1171
      7 C7         -7.5542    2.8139   72.1844 C.3         1 KO1       0.1067
      8 C8         -8.7728    1.9629   72.6389 C.3         1 KO1       0.0727
      9 O8         -9.8120    1.9646   71.6555 O.3         1 KO1      -0.3924
     10 O7         -6.8792    3.3542   73.3249 O.3         1 KO1      -0.3869
     11 C5         -5.5915    1.0295   71.9349 C.3         1 KO1       0.1120
     12 O5         -4.8270    1.6174   72.9906 O.3         1 KO1      -0.3865
     13 C4         -4.6152    0.4465   70.8760 C.3         1 KO1       0.1139
     14 O4         -3.6696   -0.4206   71.5069 O.3         1 KO1      -0.3865
     15 C3         -3.8976    1.5765   70.0825 C.3         1 KO1       0.1429
     16 O3         -3.0235    2.2882   70.9626 O.3         1 KO1      -0.3844
     17 O2         -5.6353    1.7906   68.4016 O.3         1 KO1      -0.3388
     18 C1         -9.8923    0.0439   66.9513 C.2         1 KO1       0.1043
     19 O1A        -9.2432   -0.9789   66.3443 O.co2       1 KO1      -0.5426
     20 O1B       -11.1625   -0.1897   67.3842 O.co2       1 KO1      -0.5426
     21 C2         -9.1971    1.3359   67.1224 C.3         1 KO1       0.2225
     22 C3         -7.8395    1.0312   67.8398 C.3         1 KO1       0.0360
     23 C4         -6.8820    2.2463   67.8324 C.3         1 KO1       0.0937
     24 C5         -6.6930    2.7590   66.3698 C.3         1 KO1       0.1098
     25 O5         -5.9439    1.8014   65.6105 O.3         1 KO1      -0.3866
     26 C6         -8.0799    3.0319   65.7073 C.3         1 KO1       0.1170
     27 O6         -8.9321    1.8656   65.8042 O.3         1 KO1      -0.3380
     28 C7         -8.0213    3.4540   64.1915 C.3         1 KO1       0.1067
     29 O7         -6.6977    3.5973   63.6808 O.3         1 KO1      -0.3869
     30 C8         -8.7722    4.7694   63.8606 C.3         1 KO1       0.0727
     31 O8        -10.1859    4.6062   63.8851 O.3         1 KO1      -0.3924
     32 O2         -9.9173    2.3025   67.9307 O.3         1 KO1      -0.3323
     33 C9        -11.2759    2.7377   67.6984 C.3         1 KO1       0.0783
     34 C10       -11.9121    2.3861   66.4366 C.2         1 KO1      -0.0639
     35 C11       -13.0821    1.7359   66.3377 C.2         1 KO1      -0.1153
     36 H1         -7.1722    1.4830   70.5348 H           1 KO1       0.0649
     37 H2         -7.9575    3.6696   71.6278 H           1 KO1       0.0643
     38 H3         -9.1937    2.3844   73.5549 H           1 KO1       0.0584
     39 H4         -8.4732    0.9318   72.8450 H           1 KO1       0.0584
     40 H5         -9.4758    1.4158   70.9157 H           1 KO1       0.2095
     41 H6         -7.4680    4.0702   73.6549 H           1 KO1       0.2100
     42 H7         -6.1752    0.2130   72.3624 H           1 KO1       0.0647
     43 H8         -5.4706    2.0631   73.5773 H           1 KO1       0.2100
     44 H9         -5.1898   -0.1686   70.1758 H           1 KO1       0.0647
     45 H10        -3.0464   -0.6839   70.7967 H           1 KO1       0.2100
     46 H11        -3.2857    1.1204   69.2967 H           1 KO1       0.0667
     47 H12        -2.1989    1.7574   70.9859 H           1 KO1       0.2100
     48 H13        -7.3175    0.1952   67.3439 H           1 KO1       0.0336
     49 H14        -8.0389    0.7258   68.8714 H           1 KO1       0.0336
     50 H15        -7.3243    3.0462   68.4343 H           1 KO1       0.0623
     51 H16        -6.1303    3.6980   66.3934 H           1 KO1       0.0646
     52 H17        -5.1141    2.2599   65.3464 H           1 KO1       0.2100
     53 H18        -8.5521    3.8499   66.2717 H           1 KO1       0.0649
     54 H19        -8.4731    2.6646   63.5798 H           1 KO1       0.0643
     55 H20        -6.2677    4.2820   64.2412 H           1 KO1       0.2100
     56 H21        -8.5040    5.0993   62.8512 H           1 KO1       0.0584
     57 H22        -8.4796    5.5501   64.5698 H           1 KO1       0.0584
     58 H23       -10.4179    4.5750   64.8389 H           1 KO1       0.2095
     59 H24       -11.2586    3.8280   67.7557 H           1 KO1       0.0740
     60 H25       -11.8736    2.3914   68.5416 H           1 KO1       0.0740
     61 H26       -11.4684    2.6728   65.5959 H           1 KO1       0.0695
     62 H27       -13.4712    1.5447   65.4460 H           1 KO1       0.0290
     63 H28       -13.5758    1.4465   67.1425 H           1 KO1       0.0290
@<TRIPOS>BOND
     1     2     1  ar
     2     2     3  ar
     3     4     2   1
     4     4     5   1
     5     4    15   1
     6    17     4   1
     7     5     6   1
     8     6     7   1
     9     6    11   1
    10     7     8   1
    11     7    10   1
    12     8     9   1
    13    11    12   1
    14    13    11   1
    15    13    14   1
    16    15    13   1
    17    15    16   1
    18    23    17   1
    19    18    19  ar
    20    18    20  ar
    21    21    18   1
    22    22    21   1
    23    21    27   1
    24    21    32   1
    25    22    23   1
    26    23    24   1
    27    24    25   1
    28    24    26   1
    29    26    27   1
    30    26    28   1
    31    28    29   1
    32    28    30   1
    33    30    31   1
    34    32    33   1
    35    33    34   1
    36    34    35   2
    37     6    36   1
    38     7    37   1
    39     8    38   1
    40     8    39   1
    41     9    40   1
    42    10    41   1
    43    11    42   1
    44    12    43   1
    45    13    44   1
    46    14    45   1
    47    15    46   1
    48    16    47   1
    49    22    48   1
    50    22    49   1
    51    23    50   1
    52    24    51   1
    53    25    52   1
    54    26    53   1
    55    28    54   1
    56    29    55   1
    57    30    56   1
    58    30    57   1
    59    31    58   1
    60    33    59   1
    61    33    60   1
    62    34    61   1
    63    35    62   1
    64    35    63   1
@<TRIPOS>SUBSTRUCTURE
     1  KO1      2

