@<TRIPOS>MOLECULE
2r23_ligand_000
    63    64
SMALL
GAST_HUCK
****
This file was generated by PARSER (from files_GN.cpp)

@<TRIPOS>ATOM
      1 OA1        -5.7716    6.1759   68.1136 O.co2       1 KO1      -0.5426
      2 C1         -5.7749    4.8527   67.8488 C.2         1 KO1       0.1068
      3 O1B        -4.6941    4.1381   68.2597 O.co2       1 KO1      -0.5426
      4 C2         -6.8669    4.2518   67.0304 C.3         1 KO1       0.2477
      5 O6         -6.6487    2.8203   67.0943 O.3         1 KO1      -0.3362
      6 C6         -7.4920    1.9439   66.3091 C.3         1 KO1       0.1171
      7 C7         -7.1681    0.4627   66.6925 C.3         1 KO1       0.1067
      8 C8         -8.2695   -0.1912   67.5676 C.3         1 KO1       0.0727
      9 O8         -9.3807   -0.6086   66.7733 O.3         1 KO1      -0.3924
     10 O7         -6.9558   -0.3742   65.5542 O.3         1 KO1      -0.3869
     11 C5         -7.3356    2.3100   64.8008 C.3         1 KO1       0.1120
     12 O5         -6.0440    1.9627   64.2857 O.3         1 KO1      -0.3865
     13 C4         -7.6457    3.8203   64.6003 C.3         1 KO1       0.1139
     14 O4         -7.4464    4.1563   63.2306 O.3         1 KO1      -0.3865
     15 C3         -6.7900    4.7257   65.5357 C.3         1 KO1       0.1429
     16 O3         -5.4382    4.7507   65.0705 O.3         1 KO1      -0.3844
     17 O2         -8.2039    4.4720   67.5715 O.3         1 KO1      -0.3388
     18 C1         -8.6872    6.4827   72.0208 C.2         1 KO1       0.1043
     19 O1A        -7.4688    6.1692   72.5188 O.co2       1 KO1      -0.5426
     20 O1B        -9.7071    6.6734   72.8914 O.co2       1 KO1      -0.5426
     21 C2         -8.8489    6.7760   70.5783 C.3         1 KO1       0.2225
     22 C3         -8.2948    5.5653   69.7661 C.3         1 KO1       0.0360
     23 C4         -8.5893    5.6964   68.2429 C.3         1 KO1       0.0937
     24 C5        -10.1118    5.9655   68.0068 C.3         1 KO1       0.1098
     25 O5        -10.8940    4.8012   68.3083 O.3         1 KO1      -0.3866
     26 C6        -10.5618    7.1944   68.8607 C.3         1 KO1       0.1170
     27 O6        -10.2575    6.9510   70.2538 O.3         1 KO1      -0.3380
     28 C7        -12.0743    7.5432   68.7250 C.3         1 KO1       0.1067
     29 O7        -12.3926    7.8268   67.3605 O.3         1 KO1      -0.3869
     30 C8        -12.4828    8.7591   69.5995 C.3         1 KO1       0.0727
     31 O8        -13.8505    9.1171   69.3972 O.3         1 KO1      -0.3924
     32 O2         -8.0547    7.9452   70.2470 O.3         1 KO1      -0.3323
     33 C9         -8.5880    9.2569   70.5673 C.3         1 KO1       0.0783
     34 C10        -7.6489    9.9367   71.4422 C.2         1 KO1      -0.0639
     35 C11        -7.7682    9.9759   72.7760 C.2         1 KO1      -0.1153
     36 H1         -8.5380    2.1553   66.5699 H           1 KO1       0.0649
     37 H2         -6.2409    0.4462   67.2715 H           1 KO1       0.0643
     38 H3         -8.6156    0.5081   68.3339 H           1 KO1       0.0584
     39 H4         -7.8635   -1.0672   68.0705 H           1 KO1       0.0584
     40 H5         -9.9794    0.1692   66.7286 H           1 KO1       0.2095
     41 H6         -6.0226   -0.6775   65.6286 H           1 KO1       0.2100
     42 H7         -8.0692    1.7423   64.2267 H           1 KO1       0.0647
     43 H8         -5.3867    2.5354   64.7409 H           1 KO1       0.2100
     44 H9         -8.7058    3.9990   64.8250 H           1 KO1       0.0647
     45 H10        -7.7415    5.0841   63.1407 H           1 KO1       0.2100
     46 H11        -7.1678    5.7518   65.4776 H           1 KO1       0.0667
     47 H12        -5.5015    5.0414   64.1330 H           1 KO1       0.2100
     48 H13        -8.7504    4.6378   70.1274 H           1 KO1       0.0336
     49 H14        -7.2102    5.4960   69.9170 H           1 KO1       0.0336
     50 H15        -8.0461    6.5566   67.8243 H           1 KO1       0.0623
     51 H16       -10.2609    6.1951   66.9431 H           1 KO1       0.0646
     52 H17       -10.8645    4.7174   69.2829 H           1 KO1       0.2100
     53 H18       -10.0085    8.0758   68.5132 H           1 KO1       0.0649
     54 H19       -12.6750    6.6858   69.0370 H           1 KO1       0.0643
     55 H20       -11.8287    8.5865   67.1100 H           1 KO1       0.2100
     56 H21       -11.8607    9.6304   69.3526 H           1 KO1       0.0584
     57 H22       -12.3443    8.5286   70.6618 H           1 KO1       0.0584
     58 H23       -14.3624    8.3663   69.7679 H           1 KO1       0.2095
     59 H24        -9.5970    9.2244   71.0048 H           1 KO1       0.0740
     60 H25        -8.6576    9.8251   69.6320 H           1 KO1       0.0740
     61 H26        -6.8594   10.3749   71.0207 H           1 KO1       0.0695
     62 H27        -7.0864   10.4499   73.3200 H           1 KO1       0.0290
     63 H28        -8.5210    9.5255   73.2403 H           1 KO1       0.0290
@<TRIPOS>BOND
     1     2     1  ar
     2     2     3  ar
     3     4     2   1
     4     4     5   1
     5     4    15   1
     6    17     4   1
     7     5     6   1
     8     6     7   1
     9     6    11   1
    10     7     8   1
    11     7    10   1
    12     8     9   1
    13    11    12   1
    14    13    11   1
    15    13    14   1
    16    15    13   1
    17    15    16   1
    18    23    17   1
    19    18    19  ar
    20    18    20  ar
    21    21    18   1
    22    22    21   1
    23    21    27   1
    24    21    32   1
    25    22    23   1
    26    23    24   1
    27    24    25   1
    28    24    26   1
    29    26    27   1
    30    26    28   1
    31    28    29   1
    32    28    30   1
    33    30    31   1
    34    32    33   1
    35    33    34   1
    36    34    35   2
    37     6    36   1
    38     7    37   1
    39     8    38   1
    40     8    39   1
    41     9    40   1
    42    10    41   1
    43    11    42   1
    44    12    43   1
    45    13    44   1
    46    14    45   1
    47    15    46   1
    48    16    47   1
    49    22    48   1
    50    22    49   1
    51    23    50   1
    52    24    51   1
    53    25    52   1
    54    26    53   1
    55    28    54   1
    56    29    55   1
    57    30    56   1
    58    30    57   1
    59    31    58   1
    60    33    59   1
    61    33    60   1
    62    34    61   1
    63    35    62   1
    64    35    63   1
@<TRIPOS>SUBSTRUCTURE
     1  KO1      2

