@<TRIPOS>MOLECULE
2r23_ligand_003
    63    64
SMALL
GAST_HUCK
****
This file was generated by PARSER (from files_GN.cpp)

@<TRIPOS>ATOM
      1 OA1       -11.2257    1.3291   65.6330 O.co2       1 KO1      -0.5426
      2 C1        -10.9510    2.1446   66.6757 C.2         1 KO1       0.1068
      3 O1B       -12.0291    2.6830   67.3029 O.co2       1 KO1      -0.5426
      4 C2         -9.6457    2.0550   67.3627 C.3         1 KO1       0.2477
      5 O6         -8.6327    2.4945   66.4168 O.3         1 KO1      -0.3362
      6 C6         -7.2357    2.3876   66.7931 C.3         1 KO1       0.1171
      7 C7         -6.3246    3.0643   65.7176 C.3         1 KO1       0.1067
      8 C8         -5.9560    2.2684   64.4438 C.3         1 KO1       0.0727
      9 O8         -7.0893    1.9537   63.6446 O.3         1 KO1      -0.3924
     10 O7         -6.9642    4.2654   65.2838 O.3         1 KO1      -0.3869
     11 C5         -6.8748    0.9241   67.1958 C.3         1 KO1       0.1120
     12 O5         -6.8962    0.0432   66.0699 O.3         1 KO1      -0.3865
     13 C4         -7.8844    0.4186   68.2635 C.3         1 KO1       0.1139
     14 O4         -7.5935   -0.9277   68.6452 O.3         1 KO1      -0.3865
     15 C3         -9.3567    0.5702   67.7720 C.3         1 KO1       0.1429
     16 O3         -9.6145   -0.3639   66.7151 O.3         1 KO1      -0.3844
     17 O2         -9.6980    2.8104   68.6028 O.3         1 KO1      -0.3388
     18 C1         -8.5439    6.3268   71.8326 C.2         1 KO1       0.1043
     19 O1A        -9.5224    6.8420   72.6104 O.co2       1 KO1      -0.5426
     20 O1B        -7.3096    6.2288   72.3743 O.co2       1 KO1      -0.5426
     21 C2         -8.7778    6.0185   70.4001 C.3         1 KO1       0.2225
     22 C3         -9.1692    4.5209   70.1983 C.3         1 KO1       0.0360
     23 C4         -9.4767    4.2339   68.6981 C.3         1 KO1       0.0937
     24 C5        -10.6350    5.1591   68.2268 C.3         1 KO1       0.1098
     25 O5        -11.8425    4.7424   68.8650 O.3         1 KO1      -0.3866
     26 C6        -10.2948    6.6533   68.5451 C.3         1 KO1       0.1170
     27 O6         -9.9136    6.7990   69.9365 O.3         1 KO1      -0.3380
     28 C7        -11.3818    7.7268   68.2203 C.3         1 KO1       0.1067
     29 O7        -12.6600    7.3160   68.7086 O.3         1 KO1      -0.3869
     30 C8        -11.4828    8.1270   66.7202 C.3         1 KO1       0.0727
     31 O8        -10.3615    8.8963   66.2904 O.3         1 KO1      -0.3924
     32 O2         -7.6344    6.5053   69.6506 O.3         1 KO1      -0.3323
     33 C9         -6.5590    5.6737   69.1529 C.3         1 KO1       0.0783
     34 C10        -6.3979    5.8112   67.7131 C.2         1 KO1      -0.0639
     35 C11        -7.0434    6.6921   66.9309 C.2         1 KO1      -0.1153
     36 H1         -7.0934    2.9904   67.6977 H           1 KO1       0.0649
     37 H2         -5.3882    3.3437   66.1972 H           1 KO1       0.0643
     38 H3         -5.4153    1.3547   64.6956 H           1 KO1       0.0584
     39 H4         -5.2816    2.8728   63.8331 H           1 KO1       0.0584
     40 H5         -7.6283    1.3403   64.1810 H           1 KO1       0.2095
     41 H6         -6.4270    4.6148   64.5395 H           1 KO1       0.2100
     42 H7         -5.8655    0.9178   67.6158 H           1 KO1       0.0647
     43 H8         -6.0206   -0.3958   66.0540 H           1 KO1       0.2100
     44 H9         -7.7573    1.0215   69.1664 H           1 KO1       0.0647
     45 H10        -7.4054   -1.4031   67.8077 H           1 KO1       0.2100
     46 H11       -10.0207    0.2898   68.5919 H           1 KO1       0.0667
     47 H12        -9.0253   -0.0949   65.9774 H           1 KO1       0.2100
     48 H13       -10.0613    4.3036   70.7967 H           1 KO1       0.0336
     49 H14        -8.3817    3.8559   70.5601 H           1 KO1       0.0336
     50 H15        -8.5983    4.4936   68.1109 H           1 KO1       0.0623
     51 H16       -10.7575    5.0377   67.1512 H           1 KO1       0.0646
     52 H17       -12.5575    5.2580   68.4323 H           1 KO1       0.2100
     53 H18        -9.4315    6.9247   67.9305 H           1 KO1       0.0649
     54 H19       -11.1221    8.6394   68.7652 H           1 KO1       0.0643
     55 H20       -13.2270    8.1244   68.6830 H           1 KO1       0.2100
     56 H21       -12.3657    8.7529   66.5820 H           1 KO1       0.0584
     57 H22       -11.5899    7.2423   66.0835 H           1 KO1       0.0584
     58 H23        -9.8357    8.3253   65.6906 H           1 KO1       0.2095
     59 H24        -6.7103    4.6134   69.3600 H           1 KO1       0.0740
     60 H25        -5.6224    5.9621   69.6358 H           1 KO1       0.0740
     61 H26        -5.7605    5.1893   67.2661 H           1 KO1       0.0695
     62 H27        -6.8914    6.7065   65.9524 H           1 KO1       0.0290
     63 H28        -7.6594    7.3734   67.3073 H           1 KO1       0.0290
@<TRIPOS>BOND
     1     2     1  ar
     2     2     3  ar
     3     4     2   1
     4     4     5   1
     5     4    15   1
     6    17     4   1
     7     5     6   1
     8     6     7   1
     9     6    11   1
    10     7     8   1
    11     7    10   1
    12     8     9   1
    13    11    12   1
    14    13    11   1
    15    13    14   1
    16    15    13   1
    17    15    16   1
    18    23    17   1
    19    18    19  ar
    20    18    20  ar
    21    21    18   1
    22    22    21   1
    23    21    27   1
    24    21    32   1
    25    22    23   1
    26    23    24   1
    27    24    25   1
    28    24    26   1
    29    26    27   1
    30    26    28   1
    31    28    29   1
    32    28    30   1
    33    30    31   1
    34    32    33   1
    35    33    34   1
    36    34    35   2
    37     6    36   1
    38     7    37   1
    39     8    38   1
    40     8    39   1
    41     9    40   1
    42    10    41   1
    43    11    42   1
    44    12    43   1
    45    13    44   1
    46    14    45   1
    47    15    46   1
    48    16    47   1
    49    22    48   1
    50    22    49   1
    51    23    50   1
    52    24    51   1
    53    25    52   1
    54    26    53   1
    55    28    54   1
    56    29    55   1
    57    30    56   1
    58    30    57   1
    59    31    58   1
    60    33    59   1
    61    33    60   1
    62    34    61   1
    63    35    62   1
    64    35    63   1
@<TRIPOS>SUBSTRUCTURE
     1  KO1      2

