@<TRIPOS>MOLECULE
2r23_ligand_009
    63    64
SMALL
GAST_HUCK
****
This file was generated by PARSER (from files_GN.cpp)

@<TRIPOS>ATOM
      1 OA1        -2.5950    1.1090   69.2221 O.co2       1 KO1      -0.5426
      2 C1         -3.5794    1.5139   70.0587 C.2         1 KO1       0.1068
      3 O1B        -3.2723    2.4904   70.9505 O.co2       1 KO1      -0.5426
      4 C2         -4.8557    0.7552   70.1278 C.3         1 KO1       0.2477
      5 O6         -5.6314    1.2358   71.2634 O.3         1 KO1      -0.3362
      6 C6         -6.8530    0.5422   71.6306 C.3         1 KO1       0.1171
      7 C7         -7.4537    1.2227   72.9031 C.3         1 KO1       0.1067
      8 C8         -7.9956    2.6567   72.6679 C.3         1 KO1       0.0727
      9 O8         -9.0634    2.6725   71.7184 O.3         1 KO1      -0.3924
     10 O7         -8.5139    0.4294   73.4359 O.3         1 KO1      -0.3869
     11 C5         -6.6046   -0.9903   71.8294 C.3         1 KO1       0.1120
     12 O5         -5.8827   -1.2595   73.0353 O.3         1 KO1      -0.3865
     13 C4         -5.8342   -1.5692   70.6137 C.3         1 KO1       0.1139
     14 O4         -5.5483   -2.9534   70.8116 O.3         1 KO1      -0.3865
     15 C3         -4.5366   -0.7666   70.3290 C.3         1 KO1       0.1429
     16 O3         -3.6081   -0.9748   71.3987 O.3         1 KO1      -0.3844
     17 O2         -5.5563    0.8640   68.8552 O.3         1 KO1      -0.3388
     18 C1         -9.4062    3.9522   68.8085 C.2         1 KO1       0.1043
     19 O1A       -10.4260    3.1724   68.3705 O.co2       1 KO1      -0.5426
     20 O1B        -9.6259    4.6682   69.9376 O.co2       1 KO1      -0.5426
     21 C2         -8.0335    3.7685   68.2603 C.3         1 KO1       0.2225
     22 C3         -7.3568    2.5641   68.9804 C.3         1 KO1       0.0360
     23 C4         -6.0308    2.1202   68.3016 C.3         1 KO1       0.0937
     24 C5         -6.2257    1.9292   66.7635 C.3         1 KO1       0.1098
     25 O5         -6.9374    0.7142   66.5047 O.3         1 KO1      -0.3866
     26 C6         -6.9688    3.1454   66.1366 C.3         1 KO1       0.1170
     27 O6         -8.1752    3.4259   66.8673 O.3         1 KO1      -0.3380
     28 C7         -7.3532    2.9672   64.6342 C.3         1 KO1       0.1067
     29 O7         -6.2063    2.7664   63.8002 O.3         1 KO1      -0.3869
     30 C8         -8.2021    4.1444   64.0749 C.3         1 KO1       0.0727
     31 O8         -7.8069    5.4015   64.6121 O.3         1 KO1      -0.3924
     32 O2         -7.2360    4.9605   68.4806 O.3         1 KO1      -0.3323
     33 C9         -7.3907    6.0973   67.6018 C.3         1 KO1       0.0783
     34 C10        -8.3190    7.0795   68.1343 C.2         1 KO1      -0.0639
     35 C11        -8.5717    8.2464   67.5197 C.2         1 KO1      -0.1153
     36 H1         -7.5751    0.6619   70.8132 H           1 KO1       0.0649
     37 H2         -6.6762    1.2927   73.6661 H           1 KO1       0.0643
     38 H3         -7.1941    3.3110   72.3092 H           1 KO1       0.0584
     39 H4         -8.3687    3.0707   73.6130 H           1 KO1       0.0584
     40 H5         -9.8029    2.2051   72.1620 H           1 KO1       0.2095
     41 H6         -8.6388    0.7396   74.3617 H           1 KO1       0.2100
     42 H7         -7.5657   -1.5083   71.9003 H           1 KO1       0.0647
     43 H8         -6.5367   -1.1418   73.7569 H           1 KO1       0.2100
     44 H9         -6.4787   -1.5165   69.7322 H           1 KO1       0.0647
     45 H10        -5.1163   -3.0182   71.6906 H           1 KO1       0.2100
     46 H11        -4.0752   -1.1682   69.4198 H           1 KO1       0.0667
     47 H12        -2.7250   -0.8689   70.9906 H           1 KO1       0.2100
     48 H13        -8.0245    1.6975   68.9791 H           1 KO1       0.0336
     49 H14        -7.1455    2.8371   70.0157 H           1 KO1       0.0336
     50 H15        -5.2756    2.9052   68.4410 H           1 KO1       0.0623
     51 H16        -5.2382    1.8421   66.2885 H           1 KO1       0.0646
     52 H17        -6.2454    0.0392   66.3050 H           1 KO1       0.2100
     53 H18        -6.3097    4.0083   66.1973 H           1 KO1       0.0649
     54 H19        -7.9661    2.0658   64.5220 H           1 KO1       0.0643
     55 H20        -5.4119    2.9886   64.3341 H           1 KO1       0.2100
     56 H21        -9.2532    3.9919   64.3239 H           1 KO1       0.0584
     57 H22        -8.1257    4.1839   62.9846 H           1 KO1       0.0584
     58 H23        -7.0649    5.6987   64.0477 H           1 KO1       0.2095
     59 H24        -7.7220    5.8017   66.5993 H           1 KO1       0.0740
     60 H25        -6.4097    6.5724   67.5080 H           1 KO1       0.0740
     61 H26        -8.7953    6.8903   68.9901 H           1 KO1       0.0695
     62 H27        -9.2165    8.8954   67.9164 H           1 KO1       0.0290
     63 H28        -8.1284    8.4867   66.6612 H           1 KO1       0.0290
@<TRIPOS>BOND
     1     2     1  ar
     2     2     3  ar
     3     4     2   1
     4     4     5   1
     5     4    15   1
     6    17     4   1
     7     5     6   1
     8     6     7   1
     9     6    11   1
    10     7     8   1
    11     7    10   1
    12     8     9   1
    13    11    12   1
    14    13    11   1
    15    13    14   1
    16    15    13   1
    17    15    16   1
    18    23    17   1
    19    18    19  ar
    20    18    20  ar
    21    21    18   1
    22    22    21   1
    23    21    27   1
    24    21    32   1
    25    22    23   1
    26    23    24   1
    27    24    25   1
    28    24    26   1
    29    26    27   1
    30    26    28   1
    31    28    29   1
    32    28    30   1
    33    30    31   1
    34    32    33   1
    35    33    34   1
    36    34    35   2
    37     6    36   1
    38     7    37   1
    39     8    38   1
    40     8    39   1
    41     9    40   1
    42    10    41   1
    43    11    42   1
    44    12    43   1
    45    13    44   1
    46    14    45   1
    47    15    46   1
    48    16    47   1
    49    22    48   1
    50    22    49   1
    51    23    50   1
    52    24    51   1
    53    25    52   1
    54    26    53   1
    55    28    54   1
    56    29    55   1
    57    30    56   1
    58    30    57   1
    59    31    58   1
    60    33    59   1
    61    33    60   1
    62    34    61   1
    63    35    62   1
    64    35    63   1
@<TRIPOS>SUBSTRUCTURE
     1  KO1      2

