@<TRIPOS>MOLECULE
2r23_ligand_038
    63    64
SMALL
GAST_HUCK
****
This file was generated by PARSER (from files_GN.cpp)

@<TRIPOS>ATOM
      1 OA1       -13.0170    4.4738   66.0828 O.co2       1 KO1      -0.5426
      2 C1        -13.0775    4.2421   67.4159 C.2         1 KO1       0.1068
      3 O1B       -14.0251    4.9352   68.0783 O.co2       1 KO1      -0.5426
      4 C2        -12.5068    2.9870   67.9772 C.3         1 KO1       0.2477
      5 O6        -13.5960    2.0299   67.9078 O.3         1 KO1      -0.3362
      6 C6        -13.3190    0.6881   68.3752 C.3         1 KO1       0.1171
      7 C7        -14.6187   -0.1754   68.2241 C.3         1 KO1       0.1067
      8 C8        -15.1907   -0.2718   66.7838 C.3         1 KO1       0.0727
      9 O8        -14.9697    0.9201   66.0218 O.3         1 KO1      -0.3924
     10 O7        -14.4068   -1.5159   68.6764 O.3         1 KO1      -0.3869
     11 C5        -12.7921    0.6765   69.8524 C.3         1 KO1       0.1120
     12 O5        -13.8523    0.8207   70.8071 O.3         1 KO1      -0.3865
     13 C4        -11.6833    1.7392   70.0617 C.3         1 KO1       0.1139
     14 O4        -11.3475    1.8470   71.4429 O.3         1 KO1      -0.3865
     15 C3        -12.0577    3.1257   69.4682 C.3         1 KO1       0.1429
     16 O3        -13.0454    3.7405   70.2914 O.3         1 KO1      -0.3844
     17 O2        -11.4644    2.5376   67.0658 O.3         1 KO1      -0.3388
     18 C1         -7.8926    6.1410   66.6576 C.2         1 KO1       0.1043
     19 O1A        -8.5873    7.2115   67.1096 O.co2       1 KO1      -0.5426
     20 O1B        -6.7291    6.3988   66.0076 O.co2       1 KO1      -0.5426
     21 C2         -8.2272    4.7599   67.0607 C.3         1 KO1       0.2225
     22 C3         -9.7649    4.4724   67.0192 C.3         1 KO1       0.0360
     23 C4        -10.0693    2.9477   67.1389 C.3         1 KO1       0.0937
     24 C5         -9.2861    2.1916   66.0189 C.3         1 KO1       0.1098
     25 O5         -9.7358    2.5753   64.7152 O.3         1 KO1      -0.3866
     26 C6         -7.7620    2.4837   66.1615 C.3         1 KO1       0.1170
     27 O6         -7.5527    3.9130   66.0954 O.3         1 KO1      -0.3380
     28 C7         -6.8061    1.8107   65.1219 C.3         1 KO1       0.1067
     29 O7         -6.6321    2.6261   63.9642 O.3         1 KO1      -0.3869
     30 C8         -7.1876    0.3734   64.6691 C.3         1 KO1       0.0727
     31 O8         -8.2020    0.3762   63.6628 O.3         1 KO1      -0.3924
     32 O2         -7.6549    4.4485   68.3579 O.3         1 KO1      -0.3323
     33 C9         -8.0530    5.1673   69.5484 C.3         1 KO1       0.0783
     34 C10        -8.2015    4.2622   70.6704 C.2         1 KO1      -0.0639
     35 C11        -9.2474    4.2797   71.5113 C.2         1 KO1      -0.1153
     36 H1        -12.5571    0.2376   67.7288 H           1 KO1       0.0649
     37 H2        -15.4001    0.2610   68.8569 H           1 KO1       0.0643
     38 H3        -16.2775   -0.4336   66.8495 H           1 KO1       0.0584
     39 H4        -14.7561   -1.1358   66.2608 H           1 KO1       0.0584
     40 H5        -13.9941    0.9738   65.9303 H           1 KO1       0.2095
     41 H6        -13.6355   -1.8480   68.1666 H           1 KO1       0.2100
     42 H7        -12.3566   -0.3085   70.0494 H           1 KO1       0.0647
     43 H8        -14.3980    1.5693   70.4987 H           1 KO1       0.2100
     44 H9        -10.7845    1.3865   69.5539 H           1 KO1       0.0647
     45 H10       -12.1548    2.1727   71.8975 H           1 KO1       0.2100
     46 H11       -11.1853    3.7700   69.5337 H           1 KO1       0.0667
     47 H12       -13.8947    3.6492   69.8120 H           1 KO1       0.2100
     48 H13       -10.1782    4.8483   66.0819 H           1 KO1       0.0336
     49 H14       -10.2584    5.0103   67.8287 H           1 KO1       0.0336
     50 H15        -9.6847    2.5901   68.1010 H           1 KO1       0.0623
     51 H16        -9.4702    1.1168   66.1343 H           1 KO1       0.0646
     52 H17       -10.7112    2.4930   64.7297 H           1 KO1       0.2100
     53 H18        -7.4437    2.1216   67.1440 H           1 KO1       0.0649
     54 H19        -5.8198    1.7380   65.5906 H           1 KO1       0.0643
     55 H20        -6.3484    3.5047   64.3014 H           1 KO1       0.2100
     56 H21        -7.5369   -0.2129   65.5227 H           1 KO1       0.0584
     57 H22        -6.3093   -0.1290   64.2536 H           1 KO1       0.0584
     58 H23        -7.7757    0.7694   62.8724 H           1 KO1       0.2095
     59 H24        -8.9532    5.7705   69.3870 H           1 KO1       0.0740
     60 H25        -7.2445    5.8569   69.7856 H           1 KO1       0.0740
     61 H26        -7.4776    3.5971   70.8368 H           1 KO1       0.0695
     62 H27        -9.2886    3.6334   72.2715 H           1 KO1       0.0290
     63 H28        -9.9928    4.9292   71.3998 H           1 KO1       0.0290
@<TRIPOS>BOND
     1     2     1  ar
     2     2     3  ar
     3     4     2   1
     4     4     5   1
     5     4    15   1
     6    17     4   1
     7     5     6   1
     8     6     7   1
     9     6    11   1
    10     7     8   1
    11     7    10   1
    12     8     9   1
    13    11    12   1
    14    13    11   1
    15    13    14   1
    16    15    13   1
    17    15    16   1
    18    23    17   1
    19    18    19  ar
    20    18    20  ar
    21    21    18   1
    22    22    21   1
    23    21    27   1
    24    21    32   1
    25    22    23   1
    26    23    24   1
    27    24    25   1
    28    24    26   1
    29    26    27   1
    30    26    28   1
    31    28    29   1
    32    28    30   1
    33    30    31   1
    34    32    33   1
    35    33    34   1
    36    34    35   2
    37     6    36   1
    38     7    37   1
    39     8    38   1
    40     8    39   1
    41     9    40   1
    42    10    41   1
    43    11    42   1
    44    12    43   1
    45    13    44   1
    46    14    45   1
    47    15    46   1
    48    16    47   1
    49    22    48   1
    50    22    49   1
    51    23    50   1
    52    24    51   1
    53    25    52   1
    54    26    53   1
    55    28    54   1
    56    29    55   1
    57    30    56   1
    58    30    57   1
    59    31    58   1
    60    33    59   1
    61    33    60   1
    62    34    61   1
    63    35    62   1
    64    35    63   1
@<TRIPOS>SUBSTRUCTURE
     1  KO1      2

