@<TRIPOS>MOLECULE
2r23_ligand_028
    63    64
SMALL
GAST_HUCK
****
This file was generated by PARSER (from files_GN.cpp)

@<TRIPOS>ATOM
      1 OA1       -10.2349    3.4779   63.4900 O.co2       1 KO1      -0.5426
      2 C1         -9.4028    2.5777   64.0712 C.2         1 KO1       0.1068
      3 O1B        -9.2031    1.4000   63.4306 O.co2       1 KO1      -0.5426
      4 C2         -8.7769    2.8223   65.4035 C.3         1 KO1       0.2477
      5 O6         -8.7443    4.2516   65.6611 O.3         1 KO1      -0.3362
      6 C6         -8.1116    4.6805   66.8975 C.3         1 KO1       0.1171
      7 C7         -8.3577    6.2103   67.0826 C.3         1 KO1       0.1067
      8 C8         -8.5559    6.6248   68.5659 C.3         1 KO1       0.0727
      9 O8         -8.5851    8.0458   68.7071 O.3         1 KO1      -0.3924
     10 O7         -7.3158    7.0075   66.5209 O.3         1 KO1      -0.3869
     11 C5         -6.6269    4.2157   66.9430 C.3         1 KO1       0.1120
     12 O5         -5.7895    4.9318   66.0304 O.3         1 KO1      -0.3865
     13 C4         -6.5475    2.6834   66.6763 C.3         1 KO1       0.1139
     14 O4         -5.1978    2.2223   66.6714 O.3         1 KO1      -0.3865
     15 C3         -7.3138    2.2620   65.3824 C.3         1 KO1       0.1429
     16 O3         -6.6029    2.6439   64.1942 O.3         1 KO1      -0.3844
     17 O2         -9.4937    2.0844   66.4331 O.3         1 KO1      -0.3388
     18 C1        -13.6880    4.2128   68.2660 C.2         1 KO1       0.1043
     19 O1A       -15.0098    4.1975   68.5366 O.co2       1 KO1      -0.5426
     20 O1B       -12.9288    5.0706   69.0034 O.co2       1 KO1      -0.5426
     21 C2        -13.1001    3.1590   67.4041 C.3         1 KO1       0.2225
     22 C3        -11.5534    3.3073   67.2085 C.3         1 KO1       0.0360
     23 C4        -10.9374    2.0481   66.5410 C.3         1 KO1       0.0937
     24 C5        -11.2954    0.7941   67.3833 C.3         1 KO1       0.1098
     25 O5        -10.6432    0.8719   68.6515 O.3         1 KO1      -0.3866
     26 C6        -12.8434    0.6979   67.5460 C.3         1 KO1       0.1170
     27 O6        -13.3515    1.9236   68.1303 O.3         1 KO1      -0.3380
     28 C7        -13.3626   -0.5472   68.3301 C.3         1 KO1       0.1067
     29 O7        -14.7880   -0.4654   68.4296 O.3         1 KO1      -0.3869
     30 C8        -12.7837   -0.7987   69.7506 C.3         1 KO1       0.0727
     31 O8        -12.6398    0.4025   70.5011 O.3         1 KO1      -0.3924
     32 O2        -13.8436    3.0649   66.1578 O.3         1 KO1      -0.3323
     33 C9        -13.7013    4.0167   65.0789 C.3         1 KO1       0.0783
     34 C10       -14.1916    5.3447   65.3885 C.2         1 KO1      -0.0639
     35 C11       -15.4626    5.6005   65.7212 C.2         1 KO1      -0.1153
     36 H1         -8.6193    4.1836   67.7305 H           1 KO1       0.0649
     37 H2         -9.2839    6.4779   66.5533 H           1 KO1       0.0643
     38 H3         -7.7369    6.2388   69.1810 H           1 KO1       0.0584
     39 H4         -9.4987    6.2257   68.9506 H           1 KO1       0.0584
     40 H5         -9.4493    8.3248   68.3317 H           1 KO1       0.2095
     41 H6         -7.6120    7.2356   65.6117 H           1 KO1       0.2100
     42 H7         -6.2219    4.4030   67.9437 H           1 KO1       0.0647
     43 H8         -6.3892    5.4505   65.4628 H           1 KO1       0.2100
     44 H9         -7.0250    2.1794   67.5234 H           1 KO1       0.0647
     45 H10        -4.7016    2.7981   66.0523 H           1 KO1       0.2100
     46 H11        -7.3494    1.1708   65.3658 H           1 KO1       0.0667
     47 H12        -6.3099    3.5670   64.3341 H           1 KO1       0.2100
     48 H13       -11.0793    3.4396   68.1885 H           1 KO1       0.0336
     49 H14       -11.3372    4.1960   66.6174 H           1 KO1       0.0336
     50 H15       -11.3746    1.9216   65.5504 H           1 KO1       0.0623
     51 H16       -10.9300   -0.1006   66.8762 H           1 KO1       0.0646
     52 H17        -9.6886    0.7440   68.4724 H           1 KO1       0.2100
     53 H18       -13.2634    0.6006   66.5377 H           1 KO1       0.0649
     54 H19       -13.1491   -1.4374   67.7298 H           1 KO1       0.0643
     55 H20       -14.9723    0.3729   68.8981 H           1 KO1       0.2100
     56 H21       -11.8118   -1.2905   69.6845 H           1 KO1       0.0584
     57 H22       -13.4472   -1.4680   70.2977 H           1 KO1       0.0584
     58 H23       -13.5505    0.6678   70.7462 H           1 KO1       0.2095
     59 H24       -14.2823    3.6256   64.2369 H           1 KO1       0.0740
     60 H25       -12.6660    4.0633   64.7346 H           1 KO1       0.0740
     61 H26       -13.5519    6.1055   65.3442 H           1 KO1       0.0695
     62 H27       -15.7464    6.5275   65.9262 H           1 KO1       0.0290
     63 H28       -16.1323    4.8706   65.7860 H           1 KO1       0.0290
@<TRIPOS>BOND
     1     2     1  ar
     2     2     3  ar
     3     4     2   1
     4     4     5   1
     5     4    15   1
     6    17     4   1
     7     5     6   1
     8     6     7   1
     9     6    11   1
    10     7     8   1
    11     7    10   1
    12     8     9   1
    13    11    12   1
    14    13    11   1
    15    13    14   1
    16    15    13   1
    17    15    16   1
    18    23    17   1
    19    18    19  ar
    20    18    20  ar
    21    21    18   1
    22    22    21   1
    23    21    27   1
    24    21    32   1
    25    22    23   1
    26    23    24   1
    27    24    25   1
    28    24    26   1
    29    26    27   1
    30    26    28   1
    31    28    29   1
    32    28    30   1
    33    30    31   1
    34    32    33   1
    35    33    34   1
    36    34    35   2
    37     6    36   1
    38     7    37   1
    39     8    38   1
    40     8    39   1
    41     9    40   1
    42    10    41   1
    43    11    42   1
    44    12    43   1
    45    13    44   1
    46    14    45   1
    47    15    46   1
    48    16    47   1
    49    22    48   1
    50    22    49   1
    51    23    50   1
    52    24    51   1
    53    25    52   1
    54    26    53   1
    55    28    54   1
    56    29    55   1
    57    30    56   1
    58    30    57   1
    59    31    58   1
    60    33    59   1
    61    33    60   1
    62    34    61   1
    63    35    62   1
    64    35    63   1
@<TRIPOS>SUBSTRUCTURE
     1  KO1      2

