@<TRIPOS>MOLECULE
2r23_ligand_023
    63    64
SMALL
GAST_HUCK
****
This file was generated by PARSER (from files_GN.cpp)

@<TRIPOS>ATOM
      1 OA1        -8.0663    7.7646   67.6861 O.co2       1 KO1      -0.5426
      2 C1         -8.7306    7.1645   68.7022 C.2         1 KO1       0.1068
      3 O1B        -8.0566    7.0044   69.8664 O.co2       1 KO1      -0.5426
      4 C2        -10.0844    6.6011   68.4749 C.3         1 KO1       0.2477
      5 O6        -10.8069    7.6529   67.7789 O.3         1 KO1      -0.3362
      6 C6        -12.1760    7.3692   67.3868 C.3         1 KO1       0.1171
      7 C7        -12.6925    8.5301   66.4792 C.3         1 KO1       0.1067
      8 C8        -12.2217    8.3883   65.0046 C.3         1 KO1       0.0727
      9 O8        -12.4527    7.0689   64.5070 O.3         1 KO1      -0.3924
     10 O7        -14.1233    8.6291   66.4985 O.3         1 KO1      -0.3869
     11 C5        -13.0253    7.1225   68.6675 C.3         1 KO1       0.1120
     12 O5        -13.2074    8.3246   69.4200 O.3         1 KO1      -0.3865
     13 C4        -12.3698    5.9921   69.5088 C.3         1 KO1       0.1139
     14 O4        -13.0881    5.7832   70.7251 O.3         1 KO1      -0.3865
     15 C3        -10.8605    6.2332   69.7875 C.3         1 KO1       0.1429
     16 O3        -10.7120    7.2315   70.8019 O.3         1 KO1      -0.3844
     17 O2         -9.9659    5.5152   67.5205 O.3         1 KO1      -0.3388
     18 C1         -5.6686    3.2029   68.2591 C.2         1 KO1       0.1043
     19 O1A        -5.0007    2.9874   69.4210 O.co2       1 KO1      -0.5426
     20 O1B        -5.1004    4.0690   67.3863 O.co2       1 KO1      -0.5426
     21 C2         -7.1278    2.8940   68.1634 C.3         1 KO1       0.2225
     22 C3         -7.9051    4.2609   68.2705 C.3         1 KO1       0.0360
     23 C4         -9.3651    4.2153   67.7424 C.3         1 KO1       0.0937
     24 C5         -9.4183    3.4879   66.3652 C.3         1 KO1       0.1098
     25 O5         -8.7897    4.2749   65.3495 O.3         1 KO1      -0.3866
     26 C6         -8.7369    2.0960   66.4482 C.3         1 KO1       0.1170
     27 O6         -7.3623    2.2621   66.8745 O.3         1 KO1      -0.3380
     28 C7         -8.8343    1.2656   65.1217 C.3         1 KO1       0.1067
     29 O7         -9.4436   -0.0050   65.3794 O.3         1 KO1      -0.3869
     30 C8         -7.4998    0.9973   64.3769 C.3         1 KO1       0.0727
     31 O8         -6.8878    2.2013   63.9166 O.3         1 KO1      -0.3924
     32 O2         -7.4879    2.0316   69.2846 O.3         1 KO1      -0.3323
     33 C9         -7.3165    0.5864   69.2574 C.3         1 KO1       0.0783
     34 C10        -6.0855    0.0226   68.7234 C.2         1 KO1      -0.0639
     35 C11        -5.9229   -1.2903   68.5125 C.2         1 KO1      -0.1153
     36 H1        -12.2093    6.4568   66.7828 H           1 KO1       0.0649
     37 H2        -12.3050    9.4797   66.8586 H           1 KO1       0.0643
     38 H3        -11.1504    8.6060   64.9239 H           1 KO1       0.0584
     39 H4        -12.7583    9.1023   64.3682 H           1 KO1       0.0584
     40 H5        -13.4200    7.0151   64.3570 H           1 KO1       0.2095
     41 H6        -14.4560    7.7348   66.2708 H           1 KO1       0.2100
     42 H7        -14.0227    6.7845   68.3753 H           1 KO1       0.0647
     43 H8        -12.4907    8.9394   69.1574 H           1 KO1       0.2100
     44 H9        -12.4535    5.0611   68.9447 H           1 KO1       0.0647
     45 H10       -13.0019    6.6135   71.2373 H           1 KO1       0.2100
     46 H11       -10.4316    5.3234   70.2138 H           1 KO1       0.0667
     47 H12       -10.8939    8.0886   70.3675 H           1 KO1       0.2100
     48 H13        -7.3875    5.0267   67.6771 H           1 KO1       0.0336
     49 H14        -7.9030    4.5917   69.3166 H           1 KO1       0.0336
     50 H15        -9.9721    3.6517   68.4571 H           1 KO1       0.0623
     51 H16       -10.4699    3.3551   66.0897 H           1 KO1       0.0646
     52 H17        -9.2652    5.1291   65.3461 H           1 KO1       0.2100
     53 H18        -9.2833    1.5401   67.2158 H           1 KO1       0.0649
     54 H19        -9.5007    1.7639   64.4147 H           1 KO1       0.0643
     55 H20        -8.8487   -0.4532   66.0170 H           1 KO1       0.2100
     56 H21        -7.6857    0.3700   63.5013 H           1 KO1       0.0584
     57 H22        -6.7974    0.4669   65.0257 H           1 KO1       0.0584
     58 H23        -6.6476    2.6980   64.7267 H           1 KO1       0.2095
     59 H24        -8.1601    0.1512   68.7206 H           1 KO1       0.0740
     60 H25        -7.4063    0.2670   70.2967 H           1 KO1       0.0740
     61 H26        -5.3352    0.6240   68.4872 H           1 KO1       0.0695
     62 H27        -5.0677   -1.6278   68.1296 H           1 KO1       0.0290
     63 H28        -6.6445   -1.9410   68.7225 H           1 KO1       0.0290
@<TRIPOS>BOND
     1     2     1  ar
     2     2     3  ar
     3     4     2   1
     4     4     5   1
     5     4    15   1
     6    17     4   1
     7     5     6   1
     8     6     7   1
     9     6    11   1
    10     7     8   1
    11     7    10   1
    12     8     9   1
    13    11    12   1
    14    13    11   1
    15    13    14   1
    16    15    13   1
    17    15    16   1
    18    23    17   1
    19    18    19  ar
    20    18    20  ar
    21    21    18   1
    22    22    21   1
    23    21    27   1
    24    21    32   1
    25    22    23   1
    26    23    24   1
    27    24    25   1
    28    24    26   1
    29    26    27   1
    30    26    28   1
    31    28    29   1
    32    28    30   1
    33    30    31   1
    34    32    33   1
    35    33    34   1
    36    34    35   2
    37     6    36   1
    38     7    37   1
    39     8    38   1
    40     8    39   1
    41     9    40   1
    42    10    41   1
    43    11    42   1
    44    12    43   1
    45    13    44   1
    46    14    45   1
    47    15    46   1
    48    16    47   1
    49    22    48   1
    50    22    49   1
    51    23    50   1
    52    24    51   1
    53    25    52   1
    54    26    53   1
    55    28    54   1
    56    29    55   1
    57    30    56   1
    58    30    57   1
    59    31    58   1
    60    33    59   1
    61    33    60   1
    62    34    61   1
    63    35    62   1
    64    35    63   1
@<TRIPOS>SUBSTRUCTURE
     1  KO1      2

