@<TRIPOS>MOLECULE
2r23_ligand_029
    63    64
SMALL
GAST_HUCK
****
This file was generated by PARSER (from files_GN.cpp)

@<TRIPOS>ATOM
      1 OA1       -10.9076    3.0383   70.8813 O.co2       1 KO1      -0.5426
      2 C1        -10.1974    1.9234   70.5911 C.2         1 KO1       0.1068
      3 O1B        -9.0336    1.7353   71.2599 O.co2       1 KO1      -0.5426
      4 C2        -10.5628    1.1105   69.4020 C.3         1 KO1       0.2477
      5 O6        -12.0015    0.9210   69.5005 O.3         1 KO1      -0.3362
      6 C6        -12.6525    0.2269   68.3988 C.3         1 KO1       0.1171
      7 C7        -14.1962    0.3842   68.5729 C.3         1 KO1       0.1067
      8 C8        -15.0349    0.3127   67.2660 C.3         1 KO1       0.0727
      9 O8        -15.3954   -1.0123   66.8845 O.3         1 KO1      -0.3924
     10 O7        -14.7286   -0.5086   69.5497 O.3         1 KO1      -0.3869
     11 C5        -12.0932   -1.2289   68.3028 C.3         1 KO1       0.1120
     12 O5        -12.5543   -2.0719   69.3615 O.3         1 KO1      -0.3865
     13 C4        -10.5360   -1.1988   68.2583 C.3         1 KO1       0.1139
     14 O4         -9.9928   -2.5182   68.2778 O.3         1 KO1      -0.3865
     15 C3         -9.9067   -0.3163   69.3808 C.3         1 KO1       0.1429
     16 O3        -10.0275   -0.9605   70.6549 O.3         1 KO1      -0.3844
     17 O2        -10.3293    1.9239   68.2166 O.3         1 KO1      -0.3388
     18 C1         -7.6825    5.3180   65.7322 C.2         1 KO1       0.1043
     19 O1A        -6.5899    6.1233   65.7252 O.co2       1 KO1      -0.5426
     20 O1B        -8.4344    5.3464   64.6012 O.co2       1 KO1      -0.5426
     21 C2         -7.6370    4.0574   66.5229 C.3         1 KO1       0.2225
     22 C3         -9.0201    3.6794   67.1539 C.3         1 KO1       0.0360
     23 C4         -9.0038    2.2264   67.7178 C.3         1 KO1       0.0937
     24 C5         -8.5977    1.2489   66.5729 C.3         1 KO1       0.1098
     25 O5         -9.6412    1.2498   65.5933 O.3         1 KO1      -0.3866
     26 C6         -7.2313    1.6864   65.9520 C.3         1 KO1       0.1170
     27 O6         -7.3013    3.0676   65.5199 O.3         1 KO1      -0.3380
     28 C7         -6.6806    0.7618   64.8113 C.3         1 KO1       0.1067
     29 O7         -5.6142    1.4186   64.1225 O.3         1 KO1      -0.3869
     30 C8         -7.6781    0.2916   63.7188 C.3         1 KO1       0.0727
     31 O8         -8.2574    1.3887   63.0118 O.3         1 KO1      -0.3924
     32 O2         -6.5639    4.0497   67.5104 O.3         1 KO1      -0.3323
     33 C9         -6.3664    5.0936   68.5027 C.3         1 KO1       0.0783
     34 C10        -7.4953    5.3060   69.4020 C.2         1 KO1      -0.0639
     35 C11        -8.3171    6.3686   69.3207 C.2         1 KO1      -0.1153
     36 H1        -12.3998    0.7461   67.4669 H           1 KO1       0.0649
     37 H2        -14.3592    1.3887   68.9770 H           1 KO1       0.0643
     38 H3        -14.4907    0.7872   66.4415 H           1 KO1       0.0584
     39 H4        -15.9626    0.8717   67.4178 H           1 KO1       0.0584
     40 H5        -14.5637   -1.4187   66.5609 H           1 KO1       0.2095
     41 H6        -14.6970   -1.3988   69.1491 H           1 KO1       0.2100
     42 H7        -12.4337   -1.6830   67.3695 H           1 KO1       0.0647
     43 H8        -12.6390   -1.4881   70.1414 H           1 KO1       0.2100
     44 H9        -10.2510   -0.7674   67.2922 H           1 KO1       0.0647
     45 H10       -10.1886   -2.8852   69.1694 H           1 KO1       0.2100
     46 H11        -8.8351   -0.2229   69.2032 H           1 KO1       0.0667
     47 H12       -10.8789   -0.6622   71.0321 H           1 KO1       0.2100
     48 H13        -9.8021    3.7438   66.3856 H           1 KO1       0.0336
     49 H14        -9.3082    4.3817   67.9333 H           1 KO1       0.0336
     50 H15        -8.2641    2.1762   68.5272 H           1 KO1       0.0623
     51 H16        -8.4867    0.2401   66.9683 H           1 KO1       0.0646
     52 H17       -10.4894    1.3418   66.0975 H           1 KO1       0.2100
     53 H18        -6.4807    1.6238   66.7526 H           1 KO1       0.0649
     54 H19        -6.2716   -0.1378   65.2765 H           1 KO1       0.0643
     55 H20        -5.0723    1.9053   64.7826 H           1 KO1       0.2100
     56 H21        -8.4649   -0.3284   64.1401 H           1 KO1       0.0584
     57 H22        -7.1532   -0.3302   62.9902 H           1 KO1       0.0584
     58 H23        -8.8501    1.8293   63.6590 H           1 KO1       0.2095
     59 H24        -6.0397    6.0232   68.0066 H           1 KO1       0.0740
     60 H25        -5.5352    4.7579   69.1330 H           1 KO1       0.0740
     61 H26        -7.6637    4.6281   70.1135 H           1 KO1       0.0695
     62 H27        -9.0758    6.4527   69.9650 H           1 KO1       0.0290
     63 H28        -8.2008    7.0658   68.6188 H           1 KO1       0.0290
@<TRIPOS>BOND
     1     2     1  ar
     2     2     3  ar
     3     4     2   1
     4     4     5   1
     5     4    15   1
     6    17     4   1
     7     5     6   1
     8     6     7   1
     9     6    11   1
    10     7     8   1
    11     7    10   1
    12     8     9   1
    13    11    12   1
    14    13    11   1
    15    13    14   1
    16    15    13   1
    17    15    16   1
    18    23    17   1
    19    18    19  ar
    20    18    20  ar
    21    21    18   1
    22    22    21   1
    23    21    27   1
    24    21    32   1
    25    22    23   1
    26    23    24   1
    27    24    25   1
    28    24    26   1
    29    26    27   1
    30    26    28   1
    31    28    29   1
    32    28    30   1
    33    30    31   1
    34    32    33   1
    35    33    34   1
    36    34    35   2
    37     6    36   1
    38     7    37   1
    39     8    38   1
    40     8    39   1
    41     9    40   1
    42    10    41   1
    43    11    42   1
    44    12    43   1
    45    13    44   1
    46    14    45   1
    47    15    46   1
    48    16    47   1
    49    22    48   1
    50    22    49   1
    51    23    50   1
    52    24    51   1
    53    25    52   1
    54    26    53   1
    55    28    54   1
    56    29    55   1
    57    30    56   1
    58    30    57   1
    59    31    58   1
    60    33    59   1
    61    33    60   1
    62    34    61   1
    63    35    62   1
    64    35    63   1
@<TRIPOS>SUBSTRUCTURE
     1  KO1      2

