@<TRIPOS>MOLECULE
2r23_ligand_032
    63    64
SMALL
GAST_HUCK
****
This file was generated by PARSER (from files_GN.cpp)

@<TRIPOS>ATOM
      1 OA1        -8.0040    6.8135   68.3403 O.co2       1 KO1      -0.5426
      2 C1         -7.4983    6.3896   67.1574 C.2         1 KO1       0.1068
      3 O1B        -6.7060    7.2646   66.4916 O.co2       1 KO1      -0.5426
      4 C2         -7.8238    5.0273   66.6379 C.3         1 KO1       0.2477
      5 O6         -7.5929    4.1056   67.7306 O.3         1 KO1      -0.3362
      6 C6         -7.7611    2.6893   67.4961 C.3         1 KO1       0.1171
      7 C7         -7.5085    1.8714   68.8107 C.3         1 KO1       0.1067
      8 C8         -6.6496    2.5610   69.9069 C.3         1 KO1       0.0727
      9 O8         -5.5516    3.3092   69.3818 O.3         1 KO1      -0.3924
     10 O7         -8.7475    1.5050   69.4108 O.3         1 KO1      -0.3869
     11 C5         -6.9101    2.1923   66.2882 C.3         1 KO1       0.1120
     12 O5         -5.5315    2.0322   66.6148 O.3         1 KO1      -0.3865
     13 C4         -7.0932    3.1242   65.0605 C.3         1 KO1       0.1139
     14 O4         -6.2248    2.7607   63.9869 O.3         1 KO1      -0.3865
     15 C3         -6.9134    4.6242   65.4274 C.3         1 KO1       0.1429
     16 O3         -5.5342    4.9033   65.6824 O.3         1 KO1      -0.3844
     17 O2         -9.1957    4.9476   66.1632 O.3         1 KO1      -0.3388
     18 C1        -13.6257    3.3707   67.6322 C.2         1 KO1       0.1043
     19 O1A       -13.2339    2.0787   67.5303 O.co2       1 KO1      -0.5426
     20 O1B       -14.9499    3.6022   67.7972 O.co2       1 KO1      -0.5426
     21 C2        -12.6392    4.4771   67.7957 C.3         1 KO1       0.2225
     22 C3        -11.2722    4.1049   67.1340 C.3         1 KO1       0.0360
     23 C4        -10.3451    5.3375   66.9570 C.3         1 KO1       0.0937
     24 C5        -11.1033    6.4954   66.2346 C.3         1 KO1       0.1098
     25 O5        -11.3391    6.1443   64.8680 O.3         1 KO1      -0.3866
     26 C6        -12.4447    6.8020   66.9628 C.3         1 KO1       0.1170
     27 O6        -13.2289    5.5924   67.0736 O.3         1 KO1      -0.3380
     28 C7        -13.3482    7.8903   66.3059 C.3         1 KO1       0.1067
     29 O7        -13.9037    7.4472   65.0581 O.3         1 KO1      -0.3869
     30 C8        -12.6843    9.2888   66.1399 C.3         1 KO1       0.0727
     31 O8        -12.0207    9.4493   64.8776 O.3         1 KO1      -0.3924
     32 O2        -12.3964    4.9169   69.1607 O.3         1 KO1      -0.3323
     33 C9        -13.3405    4.7907   70.2457 C.3         1 KO1       0.0783
     34 C10       -13.3754    3.4451   70.7889 C.2         1 KO1      -0.0639
     35 C11       -12.3159    2.8889   71.3984 C.2         1 KO1      -0.1153
     36 H1         -8.8077    2.5239   67.2134 H           1 KO1       0.0649
     37 H2         -7.0194    0.9219   68.5666 H           1 KO1       0.0643
     38 H3         -6.2334    1.8022   70.5750 H           1 KO1       0.0584
     39 H4         -7.2714    3.2279   70.5145 H           1 KO1       0.0584
     40 H5         -5.9711    4.0987   68.9640 H           1 KO1       0.2095
     41 H6         -9.2218    2.3536   69.5718 H           1 KO1       0.2100
     42 H7         -7.2588    1.1971   65.9993 H           1 KO1       0.0647
     43 H8         -5.2499    2.8656   67.0432 H           1 KO1       0.2100
     44 H9         -8.1090    2.9934   64.6785 H           1 KO1       0.0647
     45 H10        -5.3106    2.8992   64.3187 H           1 KO1       0.2100
     46 H11        -7.1933    5.2313   64.5559 H           1 KO1       0.0667
     47 H12        -5.4015    4.7539   66.6419 H           1 KO1       0.2100
     48 H13       -11.4509    3.6682   66.1514 H           1 KO1       0.0336
     49 H14       -10.7701    3.3688   67.7539 H           1 KO1       0.0336
     50 H15       -10.0277    5.6682   67.9525 H           1 KO1       0.0623
     51 H16       -10.4837    7.3970   66.2545 H           1 KO1       0.0646
     52 H17       -10.4960    6.3754   64.4058 H           1 KO1       0.2100
     53 H18       -12.2111    7.1598   67.9677 H           1 KO1       0.0649
     54 H19       -14.2052    8.0245   66.9729 H           1 KO1       0.0643
     55 H20       -13.1270    7.2275   64.4895 H           1 KO1       0.2100
     56 H21       -11.9526    9.4530   66.9393 H           1 KO1       0.0584
     57 H22       -13.4584   10.0681   66.2249 H           1 KO1       0.0584
     58 H23       -12.7605    9.4977   64.2238 H           1 KO1       0.2095
     59 H24       -14.3419    5.0949   69.9244 H           1 KO1       0.0740
     60 H25       -13.0299    5.4772   71.0448 H           1 KO1       0.0740
     61 H26       -14.2122    2.9087   70.7188 H           1 KO1       0.0695
     62 H27       -12.3645    1.9542   71.7548 H           1 KO1       0.0290
     63 H28       -11.4653    3.4002   71.5146 H           1 KO1       0.0290
@<TRIPOS>BOND
     1     2     1  ar
     2     2     3  ar
     3     4     2   1
     4     4     5   1
     5     4    15   1
     6    17     4   1
     7     5     6   1
     8     6     7   1
     9     6    11   1
    10     7     8   1
    11     7    10   1
    12     8     9   1
    13    11    12   1
    14    13    11   1
    15    13    14   1
    16    15    13   1
    17    15    16   1
    18    23    17   1
    19    18    19  ar
    20    18    20  ar
    21    21    18   1
    22    22    21   1
    23    21    27   1
    24    21    32   1
    25    22    23   1
    26    23    24   1
    27    24    25   1
    28    24    26   1
    29    26    27   1
    30    26    28   1
    31    28    29   1
    32    28    30   1
    33    30    31   1
    34    32    33   1
    35    33    34   1
    36    34    35   2
    37     6    36   1
    38     7    37   1
    39     8    38   1
    40     8    39   1
    41     9    40   1
    42    10    41   1
    43    11    42   1
    44    12    43   1
    45    13    44   1
    46    14    45   1
    47    15    46   1
    48    16    47   1
    49    22    48   1
    50    22    49   1
    51    23    50   1
    52    24    51   1
    53    25    52   1
    54    26    53   1
    55    28    54   1
    56    29    55   1
    57    30    56   1
    58    30    57   1
    59    31    58   1
    60    33    59   1
    61    33    60   1
    62    34    61   1
    63    35    62   1
    64    35    63   1
@<TRIPOS>SUBSTRUCTURE
     1  KO1      2

