@<TRIPOS>MOLECULE
2v00_ligand_040
    29    30
SMALL
GAST_HUCK
****
This file was generated by PARSER (from files_GN.cpp)

@<TRIPOS>ATOM
      1 N1        -10.2572    0.0731   10.1043 N.am        1 V15      -0.1828
      2 C2        -11.5198    0.3368   10.5276 C.2         1 V15       0.2430
      3 C3         -9.5596    0.9829    9.4278 C.2         1 V15       0.1868
      4 C4        -10.1177    2.1900    9.1115 C.2         1 V15      -0.0134
      5 C5        -11.3529    2.5005    9.5737 C.2         1 V15      -0.0129
      6 N6        -12.0422    1.5631   10.2620 N.2         1 V15      -0.2880
      7 C8        -10.1352    4.8912   11.6156 C.ar        1 V15      -0.0601
      8 C9         -9.9227    5.3356   12.9349 C.ar        1 V15      -0.0686
      9 C10       -10.6067    6.4674   13.4139 C.ar        1 V15      -0.0687
     10 C11       -11.4989    7.1574   12.5731 C.ar        1 V15      -0.0686
     11 C12       -11.7177    6.7038   11.2592 C.ar        1 V15      -0.0601
     12 N14       -12.2262   -0.5963   11.1837 N.pl3       1 V15      -0.2764
     13 C15       -12.0439    3.7374    9.2181 C.3         1 V15       0.0000
     14 C7        -11.0522    5.5542   10.7647 C.ar        1 V15      -0.0405
     15 C16       -11.2785    5.0884    9.3652 C.3         1 V15      -0.0061
     16 O15        -8.4201    0.7128    9.0774 O.2         1 V15      -0.4228
     17 H1         -9.8636   -0.7942   10.2883 H           1 V15       0.2550
     18 H2         -9.6158    2.8211    8.5311 H           1 V15       0.0229
     19 H3         -9.6070    4.0830   11.2801 H           1 V15       0.0557
     20 H4         -9.2707    4.8355   13.5466 H           1 V15       0.0599
     21 H5        -10.4514    6.7926   14.3711 H           1 V15       0.0559
     22 H6        -11.9926    7.9844   12.9182 H           1 V15       0.0599
     23 H7        -12.3701    7.2223   10.6661 H           1 V15       0.0557
     24 H8        -13.1367   -0.4178   11.4657 H           1 V15       0.1918
     25 H9        -11.8058   -1.4403   11.4093 H           1 V15       0.1918
     26 H10       -12.9810    3.8181    9.7808 H           1 V15       0.0499
     27 H11       -12.3212    3.6358    8.1656 H           1 V15       0.0499
     28 H12       -11.8734    5.8331    8.8283 H           1 V15       0.0454
     29 H13       -10.3189    5.0456    8.8443 H           1 V15       0.0454
@<TRIPOS>BOND
     1     2     1  am
     2     3     1  am
     3     6     2   2
     4     2    12   1
     5     4     3   1
     6     3    16   2
     7     5     4   2
     8     5     6   1
     9    13     5   1
    10     7     8  ar
    11    14     7  ar
    12     8     9  ar
    13    10     9  ar
    14    11    10  ar
    15    14    11  ar
    16    15    13   1
    17    14    15   1
    18     1    17   1
    19     4    18   1
    20     7    19   1
    21     8    20   1
    22     9    21   1
    23    10    22   1
    24    11    23   1
    25    12    24   1
    26    12    25   1
    27    13    26   1
    28    13    27   1
    29    15    28   1
    30    15    29   1
@<TRIPOS>SUBSTRUCTURE
     1  V15      2

