@<TRIPOS>MOLECULE
2v00_ligand_013
    29    30
SMALL
GAST_HUCK
****
This file was generated by PARSER (from files_GN.cpp)

@<TRIPOS>ATOM
      1 N1          0.0352    6.4670    8.5922 N.am        1 V15      -0.1828
      2 C2          0.5311    5.2740    9.0177 C.2         1 V15       0.2430
      3 C3         -1.2535    6.7566    8.7315 C.2         1 V15       0.1868
      4 C4         -2.1106    5.8594    9.3073 C.2         1 V15      -0.0134
      5 C5         -1.6438    4.6541    9.7109 C.2         1 V15      -0.0129
      6 N6         -0.3281    4.3802    9.5721 N.2         1 V15      -0.2880
      7 C8         -2.8562    2.6052    7.0980 C.ar        1 V15      -0.0601
      8 C9         -2.4713    1.6568    6.1295 C.ar        1 V15      -0.0686
      9 C10        -2.4851    0.2880    6.4437 C.ar        1 V15      -0.0687
     10 C11        -2.8721   -0.1350    7.7291 C.ar        1 V15      -0.0686
     11 C12        -3.2491    0.8146    8.6979 C.ar        1 V15      -0.0601
     12 N14         1.8372    4.9886    8.9011 N.pl3       1 V15      -0.2764
     13 C15        -2.5167    3.6542   10.3241 C.3         1 V15       0.0000
     14 C7         -3.2602    2.1947    8.3921 C.ar        1 V15      -0.0405
     15 C16        -3.6867    3.1801    9.4169 C.3         1 V15      -0.0061
     16 O15        -1.6640    7.8360    8.3294 O.2         1 V15      -0.4228
     17 H1          0.6346    7.1120    8.1883 H           1 V15       0.2550
     18 H2         -3.0744    6.1002    9.4204 H           1 V15       0.0229
     19 H3         -2.8371    3.5993    6.8539 H           1 V15       0.0557
     20 H4         -2.1715    1.9674    5.2027 H           1 V15       0.0599
     21 H5         -2.2131   -0.3988    5.7419 H           1 V15       0.0559
     22 H6         -2.8768   -1.1333    7.9624 H           1 V15       0.0599
     23 H7         -3.5222    0.4876    9.6306 H           1 V15       0.0557
     24 H8          2.1956    4.1471    9.2349 H           1 V15       0.1918
     25 H9          2.4355    5.6293    8.4846 H           1 V15       0.1918
     26 H10        -2.9254    4.0919   11.2405 H           1 V15       0.0499
     27 H11        -1.9273    2.7828   10.6349 H           1 V15       0.0499
     28 H12        -4.1656    4.0304    8.9359 H           1 V15       0.0454
     29 H13        -4.4445    2.7306   10.0540 H           1 V15       0.0454
@<TRIPOS>BOND
     1     2     1  am
     2     3     1  am
     3     6     2   2
     4     2    12   1
     5     4     3   1
     6     3    16   2
     7     5     4   2
     8     5     6   1
     9    13     5   1
    10     7     8  ar
    11    14     7  ar
    12     8     9  ar
    13    10     9  ar
    14    11    10  ar
    15    14    11  ar
    16    15    13   1
    17    14    15   1
    18     1    17   1
    19     4    18   1
    20     7    19   1
    21     8    20   1
    22     9    21   1
    23    10    22   1
    24    11    23   1
    25    12    24   1
    26    12    25   1
    27    13    26   1
    28    13    27   1
    29    15    28   1
    30    15    29   1
@<TRIPOS>SUBSTRUCTURE
     1  V15      2

