@<TRIPOS>MOLECULE
2v00_ligand_023
    29    30
SMALL
GAST_HUCK
****
This file was generated by PARSER (from files_GN.cpp)

@<TRIPOS>ATOM
      1 N1          2.1877    5.5780   10.7661 N.am        1 V15      -0.1828
      2 C2          1.5930    5.6345    9.5464 C.2         1 V15       0.2430
      3 C3          2.1453    6.6215   11.5942 C.2         1 V15       0.1868
      4 C4          1.5154    7.7804   11.2232 C.2         1 V15      -0.0134
      5 C5          0.9165    7.8494   10.0104 C.2         1 V15      -0.0129
      6 N6          0.9608    6.7780    9.1934 N.2         1 V15      -0.2880
      7 C8          3.0789   10.5573    8.2712 C.ar        1 V15      -0.0601
      8 C9          3.9982   11.6040    8.4783 C.ar        1 V15      -0.0686
      9 C10         3.5464   12.8600    8.9181 C.ar        1 V15      -0.0687
     10 C11         2.1745   13.0717    9.1440 C.ar        1 V15      -0.0686
     11 C12         1.2576   12.0236    8.9315 C.ar        1 V15      -0.0601
     12 N14         1.6192    4.5764    8.7270 N.pl3       1 V15      -0.2764
     13 C15         0.1582    9.0074    9.5558 C.3         1 V15       0.0000
     14 C7          1.6968   10.7483    8.4994 C.ar        1 V15      -0.0405
     15 C16         0.7089    9.6591    8.2523 C.3         1 V15      -0.0061
     16 O15         2.6723    6.5264   12.6934 O.2         1 V15      -0.4228
     17 H1          2.6314    4.7581   11.0441 H           1 V15       0.2550
     18 H2          1.4842    8.5518   11.8477 H           1 V15       0.0229
     19 H3          3.4246    9.6508    7.9515 H           1 V15       0.0557
     20 H4          4.9945   11.4545    8.3107 H           1 V15       0.0599
     21 H5          4.2117   13.6203    9.0767 H           1 V15       0.0559
     22 H6          1.8417   13.9876    9.4635 H           1 V15       0.0599
     23 H7          0.2613   12.2018    9.0880 H           1 V15       0.0557
     24 H8          1.1474    4.6067    7.8803 H           1 V15       0.1918
     25 H9          2.1012    3.7802    8.9925 H           1 V15       0.1918
     26 H10         0.0941    9.7592   10.3468 H           1 V15       0.0499
     27 H11        -0.8684    8.6828    9.3765 H           1 V15       0.0499
     28 H12        -0.1199   10.0989    7.6898 H           1 V15       0.0454
     29 H13         1.1350    8.8817    7.6134 H           1 V15       0.0454
@<TRIPOS>BOND
     1     2     1  am
     2     3     1  am
     3     6     2   2
     4     2    12   1
     5     4     3   1
     6     3    16   2
     7     5     4   2
     8     5     6   1
     9    13     5   1
    10     7     8  ar
    11    14     7  ar
    12     8     9  ar
    13    10     9  ar
    14    11    10  ar
    15    14    11  ar
    16    15    13   1
    17    14    15   1
    18     1    17   1
    19     4    18   1
    20     7    19   1
    21     8    20   1
    22     9    21   1
    23    10    22   1
    24    11    23   1
    25    12    24   1
    26    12    25   1
    27    13    26   1
    28    13    27   1
    29    15    28   1
    30    15    29   1
@<TRIPOS>SUBSTRUCTURE
     1  V15      2

