@<TRIPOS>MOLECULE
2v00_ligand_016
    29    30
SMALL
GAST_HUCK
****
This file was generated by PARSER (from files_GN.cpp)

@<TRIPOS>ATOM
      1 N1         -0.0839    2.7887   11.8065 N.am        1 V15      -0.1828
      2 C2         -0.3760    3.5079   10.6871 C.2         1 V15       0.2430
      3 C3         -1.0518    2.2168   12.5149 C.2         1 V15       0.1868
      4 C4         -2.3558    2.3290   12.1349 C.2         1 V15      -0.0134
      5 C5         -2.6632    3.0269   11.0169 C.2         1 V15      -0.0129
      6 N6         -1.6754    3.6105   10.3134 N.2         1 V15      -0.2880
      7 C8         -5.7301    0.2778   10.9180 C.ar        1 V15      -0.0601
      8 C9         -5.7593   -0.9572   11.5970 C.ar        1 V15      -0.0686
      9 C10        -4.6158   -1.7706   11.6275 C.ar        1 V15      -0.0687
     10 C11        -3.4382   -1.3574   10.9783 C.ar        1 V15      -0.0686
     11 C12        -3.4116   -0.1288   10.2914 C.ar        1 V15      -0.0601
     12 N14         0.6065    4.0832    9.9762 N.pl3       1 V15      -0.2764
     13 C15        -4.0277    3.1784   10.5336 C.3         1 V15       0.0000
     14 C7         -4.5502    0.7085   10.2594 C.ar        1 V15      -0.0405
     15 C16        -4.4886    2.0368    9.5866 C.3         1 V15      -0.0061
     16 O15        -0.7562    1.5646   13.5051 O.2         1 V15      -0.4228
     17 H1          0.8458    2.7010   12.0787 H           1 V15       0.2550
     18 H2         -3.0736    1.8721   12.6507 H           1 V15       0.0229
     19 H3         -6.5665    0.8667   10.9217 H           1 V15       0.0557
     20 H4         -6.6150   -1.2566   12.0728 H           1 V15       0.0599
     21 H5         -4.6338   -2.6649   12.1266 H           1 V15       0.0559
     22 H6         -2.6026   -1.9410   11.0089 H           1 V15       0.0599
     23 H7         -2.5437    0.1627    9.8353 H           1 V15       0.0557
     24 H8          0.3969    4.5874    9.1750 H           1 V15       0.1918
     25 H9          1.5282    3.9763   10.2664 H           1 V15       0.1918
     26 H10        -4.1028    4.1200    9.9791 H           1 V15       0.0499
     27 H11        -4.7256    3.2579   11.3690 H           1 V15       0.0499
     28 H12        -3.8205    1.9841    8.7229 H           1 V15       0.0454
     29 H13        -5.4784    2.2921    9.1918 H           1 V15       0.0454
@<TRIPOS>BOND
     1     2     1  am
     2     3     1  am
     3     6     2   2
     4     2    12   1
     5     4     3   1
     6     3    16   2
     7     5     4   2
     8     5     6   1
     9    13     5   1
    10     7     8  ar
    11    14     7  ar
    12     8     9  ar
    13    10     9  ar
    14    11    10  ar
    15    14    11  ar
    16    15    13   1
    17    14    15   1
    18     1    17   1
    19     4    18   1
    20     7    19   1
    21     8    20   1
    22     9    21   1
    23    10    22   1
    24    11    23   1
    25    12    24   1
    26    12    25   1
    27    13    26   1
    28    13    27   1
    29    15    28   1
    30    15    29   1
@<TRIPOS>SUBSTRUCTURE
     1  V15      2

