@<TRIPOS>MOLECULE
2v00_ligand_014
    29    30
SMALL
GAST_HUCK
****
This file was generated by PARSER (from files_GN.cpp)

@<TRIPOS>ATOM
      1 N1          0.2538    4.2669   10.4701 N.am        1 V15      -0.1828
      2 C2          0.7682    4.7022    9.2896 C.2         1 V15       0.2430
      3 C3         -1.0608    4.2393   10.6644 C.2         1 V15       0.1868
      4 C4         -1.9239    4.6595    9.6914 C.2         1 V15      -0.0134
      5 C5         -1.4365    5.0407    8.4849 C.2         1 V15      -0.0129
      6 N6         -0.0955    5.0791    8.3089 N.2         1 V15      -0.2880
      7 C8         -4.1019    2.5334    8.4798 C.ar        1 V15      -0.0601
      8 C9         -4.0178    1.1400    8.6472 C.ar        1 V15      -0.0686
      9 C10        -3.3439    0.3554    7.6913 C.ar        1 V15      -0.0687
     10 C11        -2.7507    0.9671    6.5756 C.ar        1 V15      -0.0686
     11 C12        -2.8286    2.3625    6.4145 C.ar        1 V15      -0.0601
     12 N14         2.0985    4.7046    9.1295 N.pl3       1 V15      -0.2764
     13 C15        -2.2929    5.4345    7.3701 C.3         1 V15       0.0000
     14 C7         -3.5123    3.1657    7.3594 C.ar        1 V15      -0.0405
     15 C16        -3.6169    4.6391    7.1652 C.3         1 V15      -0.0061
     16 O15        -1.4878    3.7717   11.7097 O.2         1 V15      -0.4228
     17 H1          0.8645    3.9507   11.1569 H           1 V15       0.2550
     18 H2         -2.9061    4.6487    9.8651 H           1 V15       0.0229
     19 H3         -4.5957    3.0834    9.1855 H           1 V15       0.0557
     20 H4         -4.4412    0.6968    9.4702 H           1 V15       0.0599
     21 H5         -3.2926   -0.6638    7.8154 H           1 V15       0.0559
     22 H6         -2.2656    0.3952    5.8829 H           1 V15       0.0599
     23 H7         -2.3743    2.7901    5.6031 H           1 V15       0.0557
     24 H8          2.5219    4.9986    8.3083 H           1 V15       0.1918
     25 H9          2.6428    4.3317    9.8339 H           1 V15       0.1918
     26 H10        -1.7229    5.3782    6.4358 H           1 V15       0.0499
     27 H11        -2.5518    6.4879    7.5152 H           1 V15       0.0499
     28 H12        -3.9846    4.8244    6.1501 H           1 V15       0.0454
     29 H13        -4.3730    5.0580    7.8439 H           1 V15       0.0454
@<TRIPOS>BOND
     1     2     1  am
     2     3     1  am
     3     6     2   2
     4     2    12   1
     5     4     3   1
     6     3    16   2
     7     5     4   2
     8     5     6   1
     9    13     5   1
    10     7     8  ar
    11    14     7  ar
    12     8     9  ar
    13    10     9  ar
    14    11    10  ar
    15    14    11  ar
    16    15    13   1
    17    14    15   1
    18     1    17   1
    19     4    18   1
    20     7    19   1
    21     8    20   1
    22     9    21   1
    23    10    22   1
    24    11    23   1
    25    12    24   1
    26    12    25   1
    27    13    26   1
    28    13    27   1
    29    15    28   1
    30    15    29   1
@<TRIPOS>SUBSTRUCTURE
     1  V15      2

