@<TRIPOS>MOLECULE
2v00_ligand_000
    29    30
SMALL
GAST_HUCK
****
This file was generated by PARSER (from files_GN.cpp)

@<TRIPOS>ATOM
      1 N1          0.3574    4.4090   10.4171 N.am        1 V15      -0.1828
      2 C2          0.9026    5.2974    9.5491 C.2         1 V15       0.2430
      3 C3         -0.9299    4.4835   10.7464 C.2         1 V15       0.1868
      4 C4         -1.7385    5.4409   10.1944 C.2         1 V15      -0.0134
      5 C5         -1.2190    6.3261    9.3076 C.2         1 V15      -0.0129
      6 N6          0.1021    6.2595    9.0212 N.2         1 V15      -0.2880
      7 C8         -2.1105    9.2083    5.2528 C.ar        1 V15      -0.0601
      8 C9         -2.7729   10.2536    4.5806 C.ar        1 V15      -0.0686
      9 C10        -3.8483   10.9128    5.1914 C.ar        1 V15      -0.0687
     10 C11        -4.2587   10.5315    6.4769 C.ar        1 V15      -0.0686
     11 C12        -3.5910    9.4932    7.1519 C.ar        1 V15      -0.0601
     12 N14         2.2036    5.1913    9.2230 N.pl3       1 V15      -0.2764
     13 C15        -2.0397    7.3822    8.7110 C.3         1 V15       0.0000
     14 C7         -2.4976    8.8141    6.5566 C.ar        1 V15      -0.0405
     15 C16        -1.7209    7.7215    7.2217 C.3         1 V15      -0.0061
     16 O15        -1.3797    3.6681   11.5370 O.2         1 V15      -0.4228
     17 H1          0.9204    3.7154   10.7966 H           1 V15       0.2550
     18 H2         -2.6952    5.4824   10.4580 H           1 V15       0.0229
     19 H3         -1.3295    8.7453    4.7819 H           1 V15       0.0557
     20 H4         -2.4670   10.5359    3.6462 H           1 V15       0.0599
     21 H5         -4.3294   11.6712    4.6984 H           1 V15       0.0559
     22 H6         -5.0434   11.0140    6.9267 H           1 V15       0.0599
     23 H7         -3.9165    9.2449    8.0852 H           1 V15       0.0557
     24 H8          2.6078    5.8009    8.5890 H           1 V15       0.1918
     25 H9          2.7236    4.4632    9.5982 H           1 V15       0.1918
     26 H10        -1.8972    8.2816    9.3151 H           1 V15       0.0499
     27 H11        -3.0989    7.1066    8.7656 H           1 V15       0.0499
     28 H12        -1.8520    6.8080    6.6323 H           1 V15       0.0454
     29 H13        -0.6643    8.0018    7.1656 H           1 V15       0.0454
@<TRIPOS>BOND
     1     2     1  am
     2     3     1  am
     3     6     2   2
     4     2    12   1
     5     4     3   1
     6     3    16   2
     7     5     4   2
     8     5     6   1
     9    13     5   1
    10     7     8  ar
    11    14     7  ar
    12     8     9  ar
    13    10     9  ar
    14    11    10  ar
    15    14    11  ar
    16    15    13   1
    17    14    15   1
    18     1    17   1
    19     4    18   1
    20     7    19   1
    21     8    20   1
    22     9    21   1
    23    10    22   1
    24    11    23   1
    25    12    24   1
    26    12    25   1
    27    13    26   1
    28    13    27   1
    29    15    28   1
    30    15    29   1
@<TRIPOS>SUBSTRUCTURE
     1  V15      2

