@<TRIPOS>MOLECULE
2v00_ligand_032
    29    30
SMALL
GAST_HUCK
****
This file was generated by PARSER (from files_GN.cpp)

@<TRIPOS>ATOM
      1 N1         -2.3373    1.7660    5.9941 N.am        1 V15      -0.1828
      2 C2         -2.1975    0.6052    6.6787 C.2         1 V15       0.2430
      3 C3         -3.5182    2.3922    5.9327 C.2         1 V15       0.1868
      4 C4         -4.6103    1.8572    6.5547 C.2         1 V15      -0.0134
      5 C5         -4.4917    0.6946    7.2248 C.2         1 V15      -0.0129
      6 N6         -3.2917    0.0831    7.2899 N.2         1 V15      -0.2880
      7 C8         -4.1689   -0.6262   10.6792 C.ar        1 V15      -0.0601
      8 C9         -3.0319   -0.6348   11.5102 C.ar        1 V15      -0.0686
      9 C10        -2.4281    0.5731   11.8961 C.ar        1 V15      -0.0687
     10 C11        -2.9674    1.7955   11.4554 C.ar        1 V15      -0.0686
     11 C12        -4.1016    1.8046   10.6343 C.ar        1 V15      -0.0601
     12 N14        -1.0136   -0.0302    6.7393 N.pl3       1 V15      -0.2764
     13 C15        -5.6192    0.0618    7.9059 C.3         1 V15       0.0000
     14 C7         -4.7171    0.5944   10.2326 C.ar        1 V15      -0.0405
     15 C16        -5.9041    0.6249    9.3186 C.3         1 V15      -0.0061
     16 O15        -3.5988    3.4319    5.2991 O.2         1 V15      -0.4228
     17 H1         -1.5711    2.1512    5.5475 H           1 V15       0.2550
     18 H2         -5.4893    2.3240    6.4899 H           1 V15       0.0229
     19 H3         -4.5893   -1.5186   10.4060 H           1 V15       0.0557
     20 H4         -2.6428   -1.5257   11.8320 H           1 V15       0.0599
     21 H5         -1.6003    0.5679   12.4969 H           1 V15       0.0559
     22 H6         -2.5296    2.6792   11.7368 H           1 V15       0.0599
     23 H7         -4.4777    2.7052   10.3239 H           1 V15       0.0557
     24 H8         -0.9363   -0.8561    7.2393 H           1 V15       0.1918
     25 H9         -0.2365    0.3367    6.2895 H           1 V15       0.1918
     26 H10        -5.4566   -1.0168    7.9859 H           1 V15       0.0499
     27 H11        -6.5101    0.1919    7.2803 H           1 V15       0.0499
     28 H12        -6.7221    0.0472    9.7664 H           1 V15       0.0454
     29 H13        -6.2685    1.6506    9.2338 H           1 V15       0.0454
@<TRIPOS>BOND
     1     2     1  am
     2     3     1  am
     3     6     2   2
     4     2    12   1
     5     4     3   1
     6     3    16   2
     7     5     4   2
     8     5     6   1
     9    13     5   1
    10     7     8  ar
    11    14     7  ar
    12     8     9  ar
    13    10     9  ar
    14    11    10  ar
    15    14    11  ar
    16    15    13   1
    17    14    15   1
    18     1    17   1
    19     4    18   1
    20     7    19   1
    21     8    20   1
    22     9    21   1
    23    10    22   1
    24    11    23   1
    25    12    24   1
    26    12    25   1
    27    13    26   1
    28    13    27   1
    29    15    28   1
    30    15    29   1
@<TRIPOS>SUBSTRUCTURE
     1  V15      2

