@<TRIPOS>MOLECULE
2v00_ligand_029
    29    30
SMALL
GAST_HUCK
****
This file was generated by PARSER (from files_GN.cpp)

@<TRIPOS>ATOM
      1 N1        -12.0163    1.4817    9.6622 N.am        1 V15      -0.1828
      2 C2        -11.4355    0.4347   10.3090 C.2         1 V15       0.2430
      3 C3        -11.2750    2.3513    8.9711 C.2         1 V15       0.1868
      4 C4         -9.9143    2.2212    8.9130 C.2         1 V15      -0.0134
      5 C5         -9.3215    1.1848    9.5515 C.2         1 V15      -0.0129
      6 N6        -10.0865    0.3060   10.2287 N.2         1 V15      -0.2880
      7 C8         -4.7663    0.6333   11.1094 C.ar        1 V15      -0.0601
      8 C9         -3.6429   -0.2010   11.2551 C.ar        1 V15      -0.0686
      9 C10        -3.8091   -1.5874   11.4238 C.ar        1 V15      -0.0687
     10 C11        -5.1032   -2.1408   11.4454 C.ar        1 V15      -0.0686
     11 C12        -6.2263   -1.3050   11.2878 C.ar        1 V15      -0.0601
     12 N14       -12.1559   -0.4393   11.0243 N.pl3       1 V15      -0.2764
     13 C15        -7.8805    0.9532    9.5480 C.3         1 V15       0.0000
     14 C7         -6.0712    0.0928   11.1137 C.ar        1 V15      -0.0405
     15 C16        -7.2748    0.9617   10.9813 C.3         1 V15      -0.0061
     16 O15       -11.8392    3.2675    8.3935 O.2         1 V15      -0.4228
     17 H1        -12.9773    1.5921    9.7007 H           1 V15       0.2550
     18 H2         -9.3723    2.8810    8.4015 H           1 V15       0.0229
     19 H3         -4.6251    1.6392   10.9927 H           1 V15       0.0557
     20 H4         -2.7040    0.2034   11.2461 H           1 V15       0.0599
     21 H5         -2.9929   -2.1903   11.5393 H           1 V15       0.0559
     22 H6         -5.2238   -3.1462   11.5743 H           1 V15       0.0599
     23 H7         -7.1564   -1.7287   11.3137 H           1 V15       0.0557
     24 H8        -11.6958   -1.1492   11.5021 H           1 V15       0.1918
     25 H9        -13.1143   -0.3221   11.1352 H           1 V15       0.1918
     26 H10        -7.3539    1.7055    8.9509 H           1 V15       0.0499
     27 H11        -7.7031   -0.0107    9.0653 H           1 V15       0.0499
     28 H12        -8.0094    0.6172   11.7165 H           1 V15       0.0454
     29 H13        -7.0313    1.9963   11.2384 H           1 V15       0.0454
@<TRIPOS>BOND
     1     2     1  am
     2     3     1  am
     3     6     2   2
     4     2    12   1
     5     4     3   1
     6     3    16   2
     7     5     4   2
     8     5     6   1
     9    13     5   1
    10     7     8  ar
    11    14     7  ar
    12     8     9  ar
    13    10     9  ar
    14    11    10  ar
    15    14    11  ar
    16    15    13   1
    17    14    15   1
    18     1    17   1
    19     4    18   1
    20     7    19   1
    21     8    20   1
    22     9    21   1
    23    10    22   1
    24    11    23   1
    25    12    24   1
    26    12    25   1
    27    13    26   1
    28    13    27   1
    29    15    28   1
    30    15    29   1
@<TRIPOS>SUBSTRUCTURE
     1  V15      2

