@<TRIPOS>MOLECULE
2v00_ligand_012
    29    30
SMALL
GAST_HUCK
****
This file was generated by PARSER (from files_GN.cpp)

@<TRIPOS>ATOM
      1 N1          0.9291    6.5750    8.5532 N.am        1 V15      -0.1828
      2 C2          0.7620    5.2721    8.9262 C.2         1 V15       0.2430
      3 C3         -0.0326    7.4693    8.7619 C.2         1 V15       0.1868
      4 C4         -1.2174    7.0938    9.3354 C.2         1 V15      -0.0134
      5 C5         -1.3989    5.8048    9.7034 C.2         1 V15      -0.0129
      6 N6         -0.3983    4.9209    9.5140 N.2         1 V15      -0.2880
      7 C8         -3.8392    5.1450    7.4763 C.ar        1 V15      -0.0601
      8 C9         -4.2561    5.0731    6.1328 C.ar        1 V15      -0.0686
      9 C10        -4.4507    3.8246    5.5166 C.ar        1 V15      -0.0687
     10 C11        -4.2192    2.6471    6.2469 C.ar        1 V15      -0.0686
     11 C12        -3.8046    2.7219    7.5866 C.ar        1 V15      -0.0601
     12 N14         1.7002    4.3500    8.6855 N.pl3       1 V15      -0.2764
     13 C15        -2.6442    5.3021   10.2789 C.3         1 V15       0.0000
     14 C7         -3.6079    3.9668    8.2309 C.ar        1 V15      -0.0405
     15 C16        -3.1846    3.9717    9.6663 C.3         1 V15      -0.0061
     16 O15         0.1593    8.6239    8.4119 O.2         1 V15      -0.4228
     17 H1          1.7520    6.8341    8.1127 H           1 V15       0.2550
     18 H2         -1.9397    7.7693    9.4604 H           1 V15       0.0229
     19 H3         -3.7054    6.0632    7.9051 H           1 V15       0.0557
     20 H4         -4.4230    5.9279    5.5947 H           1 V15       0.0599
     21 H5         -4.7561    3.7722    4.5414 H           1 V15       0.0559
     22 H6         -4.3541    1.7348    5.8001 H           1 V15       0.0599
     23 H7         -3.6418    1.8497    8.0972 H           1 V15       0.0557
     24 H8          1.5400    3.4246    8.9336 H           1 V15       0.1918
     25 H9          2.5126    4.5902    8.2097 H           1 V15       0.1918
     26 H10        -3.4349    6.0467   10.1734 H           1 V15       0.0499
     27 H11        -2.4797    5.1561   11.3430 H           1 V15       0.0499
     28 H12        -4.0413    3.6584   10.2699 H           1 V15       0.0454
     29 H13        -2.4164    3.2018    9.8009 H           1 V15       0.0454
@<TRIPOS>BOND
     1     2     1  am
     2     3     1  am
     3     6     2   2
     4     2    12   1
     5     4     3   1
     6     3    16   2
     7     5     4   2
     8     5     6   1
     9    13     5   1
    10     7     8  ar
    11    14     7  ar
    12     8     9  ar
    13    10     9  ar
    14    11    10  ar
    15    14    11  ar
    16    15    13   1
    17    14    15   1
    18     1    17   1
    19     4    18   1
    20     7    19   1
    21     8    20   1
    22     9    21   1
    23    10    22   1
    24    11    23   1
    25    12    24   1
    26    12    25   1
    27    13    26   1
    28    13    27   1
    29    15    28   1
    30    15    29   1
@<TRIPOS>SUBSTRUCTURE
     1  V15      2

