@<TRIPOS>MOLECULE
2v00_ligand_007
    29    30
SMALL
GAST_HUCK
****
This file was generated by PARSER (from files_GN.cpp)

@<TRIPOS>ATOM
      1 N1          0.7207    6.6640    8.4458 N.am        1 V15      -0.1828
      2 C2          0.8444    5.4767    9.0937 C.2         1 V15       0.2430
      3 C3         -0.3986    7.3786    8.5386 C.2         1 V15       0.1868
      4 C4         -1.4430    6.9339    9.2995 C.2         1 V15      -0.0134
      5 C5         -1.3346    5.7542    9.9578 C.2         1 V15      -0.0129
      6 N6         -0.1970    5.0390    9.8471 N.2         1 V15      -0.2880
      7 C8         -2.5745    2.1877   11.8230 C.ar        1 V15      -0.0601
      8 C9         -2.0634    0.8912   12.0077 C.ar        1 V15      -0.0686
      9 C10        -1.6086    0.1531   10.9007 C.ar        1 V15      -0.0687
     10 C11        -1.6786    0.7072    9.6088 C.ar        1 V15      -0.0686
     11 C12        -2.1982    2.0005    9.4235 C.ar        1 V15      -0.0601
     12 N14         1.9814    4.7725    9.0116 N.pl3       1 V15      -0.2764
     13 C15        -2.3599    5.2798   10.8761 C.3         1 V15       0.0000
     14 C7         -2.6413    2.7611   10.5299 C.ar        1 V15      -0.0405
     15 C16        -3.2359    4.1105   10.3467 C.3         1 V15      -0.0061
     16 O15        -0.4734    8.4435    7.9440 O.2         1 V15      -0.4228
     17 H1          1.4643    6.9960    7.9190 H           1 V15       0.2550
     18 H2         -2.2565    7.5012    9.3931 H           1 V15       0.0229
     19 H3         -2.9194    2.7040   12.6366 H           1 V15       0.0557
     20 H4         -2.0290    0.4850   12.9443 H           1 V15       0.0599
     21 H5         -1.2295   -0.7874   11.0370 H           1 V15       0.0559
     22 H6         -1.3572    0.1695    8.8006 H           1 V15       0.0599
     23 H7         -2.2582    2.3777    8.4755 H           1 V15       0.0557
     24 H8          2.1128    3.9833    9.5594 H           1 V15       0.1918
     25 H9          2.6820    5.0630    8.4086 H           1 V15       0.1918
     26 H10        -3.0370    6.1016   11.1240 H           1 V15       0.0499
     27 H11        -1.8727    4.9912   11.8085 H           1 V15       0.0499
     28 H12        -3.4749    4.2977    9.2959 H           1 V15       0.0454
     29 H13        -4.1889    4.1155   10.8840 H           1 V15       0.0454
@<TRIPOS>BOND
     1     2     1  am
     2     3     1  am
     3     6     2   2
     4     2    12   1
     5     4     3   1
     6     3    16   2
     7     5     4   2
     8     5     6   1
     9    13     5   1
    10     7     8  ar
    11    14     7  ar
    12     8     9  ar
    13    10     9  ar
    14    11    10  ar
    15    14    11  ar
    16    15    13   1
    17    14    15   1
    18     1    17   1
    19     4    18   1
    20     7    19   1
    21     8    20   1
    22     9    21   1
    23    10    22   1
    24    11    23   1
    25    12    24   1
    26    12    25   1
    27    13    26   1
    28    13    27   1
    29    15    28   1
    30    15    29   1
@<TRIPOS>SUBSTRUCTURE
     1  V15      2

