@<TRIPOS>MOLECULE
2v00_ligand_006
    29    30
SMALL
GAST_HUCK
****
This file was generated by PARSER (from files_GN.cpp)

@<TRIPOS>ATOM
      1 N1          0.3734    3.7798    9.9078 N.am        1 V15      -0.1828
      2 C2          0.8306    4.7344    9.0586 C.2         1 V15       0.2430
      3 C3         -0.9243    3.4813    9.9663 C.2         1 V15       0.1868
      4 C4         -1.8228    4.1389    9.1688 C.2         1 V15      -0.0134
      5 C5         -1.3788    5.0853    8.3071 C.2         1 V15      -0.0129
      6 N6         -0.0632    5.3748    8.2639 N.2         1 V15      -0.2880
      7 C8         -0.8492    8.1933    9.1196 C.ar        1 V15      -0.0601
      8 C9          0.0650    9.2601    9.1968 C.ar        1 V15      -0.0686
      9 C10        -0.0910   10.3831    8.3647 C.ar        1 V15      -0.0687
     10 C11        -1.1569   10.4348    7.4491 C.ar        1 V15      -0.0686
     11 C12        -2.0663    9.3647    7.3664 C.ar        1 V15      -0.0601
     12 N14         2.1378    5.0237    9.0050 N.pl3       1 V15      -0.2764
     13 C15        -2.2746    5.8326    7.4328 C.3         1 V15       0.0000
     14 C7         -1.9272    8.2317    8.2044 C.ar        1 V15      -0.0405
     15 C16        -2.8825    7.0942    8.1095 C.3         1 V15      -0.0061
     16 O15        -1.2934    2.6104   10.7394 O.2         1 V15      -0.4228
     17 H1          1.0080    3.3213   10.4806 H           1 V15       0.2550
     18 H2         -2.7925    3.9213    9.2303 H           1 V15       0.0229
     19 H3         -0.7202    7.3841    9.7320 H           1 V15       0.0557
     20 H4          0.8402    9.2186    9.8612 H           1 V15       0.0599
     21 H5          0.5694   11.1614    8.4243 H           1 V15       0.0559
     22 H6         -1.2695   11.2499    6.8411 H           1 V15       0.0599
     23 H7         -2.8277    9.4165    6.6847 H           1 V15       0.0557
     24 H8          2.4629    5.7219    8.4159 H           1 V15       0.1918
     25 H9          2.7646    4.4917    9.5210 H           1 V15       0.1918
     26 H10        -3.0937    5.1828    7.1140 H           1 V15       0.0499
     27 H11        -1.7477    6.1198    6.5154 H           1 V15       0.0499
     28 H12        -3.2672    6.8466    9.1047 H           1 V15       0.0454
     29 H13        -3.7484    7.4058    7.5212 H           1 V15       0.0454
@<TRIPOS>BOND
     1     2     1  am
     2     3     1  am
     3     6     2   2
     4     2    12   1
     5     4     3   1
     6     3    16   2
     7     5     4   2
     8     5     6   1
     9    13     5   1
    10     7     8  ar
    11    14     7  ar
    12     8     9  ar
    13    10     9  ar
    14    11    10  ar
    15    14    11  ar
    16    15    13   1
    17    14    15   1
    18     1    17   1
    19     4    18   1
    20     7    19   1
    21     8    20   1
    22     9    21   1
    23    10    22   1
    24    11    23   1
    25    12    24   1
    26    12    25   1
    27    13    26   1
    28    13    27   1
    29    15    28   1
    30    15    29   1
@<TRIPOS>SUBSTRUCTURE
     1  V15      2

