@<TRIPOS>MOLECULE
2v00_ligand_035
    29    30
SMALL
GAST_HUCK
****
This file was generated by PARSER (from files_GN.cpp)

@<TRIPOS>ATOM
      1 N1         -0.1069   -0.0199    6.6323 N.am        1 V15      -0.1828
      2 C2         -1.3320   -0.1510    6.0621 C.2         1 V15       0.2430
      3 C3          0.0060    0.2576    7.9316 C.2         1 V15       0.1868
      4 C4         -1.1058    0.4535    8.7064 C.2         1 V15      -0.0134
      5 C5         -2.3334    0.3077    8.1569 C.2         1 V15      -0.0129
      6 N6         -2.4331    0.0060    6.8450 N.2         1 V15      -0.2880
      7 C8         -6.7703   -1.4574    9.3652 C.ar        1 V15      -0.0601
      8 C9         -8.1249   -1.2731    9.7054 C.ar        1 V15      -0.0686
      9 C10        -8.5331   -0.0925   10.3496 C.ar        1 V15      -0.0687
     10 C11        -7.5827    0.8913   10.6660 C.ar        1 V15      -0.0686
     11 C12        -6.2282    0.6916   10.3434 C.ar        1 V15      -0.0601
     12 N14        -1.4654   -0.4405    4.7607 N.pl3       1 V15      -0.2764
     13 C15        -3.5758    0.5763    8.8794 C.3         1 V15       0.0000
     14 C7         -5.7959   -0.4748    9.6650 C.ar        1 V15      -0.0405
     15 C16        -4.3681   -0.7062    9.2818 C.3         1 V15      -0.0061
     16 O15         1.1225    0.3189    8.4201 O.2         1 V15      -0.4228
     17 H1          0.6902   -0.1477    6.0865 H           1 V15       0.2550
     18 H2         -1.0053    0.6851    9.6676 H           1 V15       0.0229
     19 H3         -6.5001   -2.3258    8.8991 H           1 V15       0.0557
     20 H4         -8.8143   -1.9972    9.4847 H           1 V15       0.0599
     21 H5         -9.5189    0.0526   10.5843 H           1 V15       0.0559
     22 H6         -7.8783    1.7526   11.1344 H           1 V15       0.0599
     23 H7         -5.5667    1.4224   10.6055 H           1 V15       0.0557
     24 H8         -2.3507   -0.6217    4.4032 H           1 V15       0.1918
     25 H9         -0.6851   -0.5287    4.1845 H           1 V15       0.1918
     26 H10        -4.2080    1.1994    8.2397 H           1 V15       0.0499
     27 H11        -3.3673    1.1548    9.7855 H           1 V15       0.0499
     28 H12        -3.8647   -1.1882   10.1266 H           1 V15       0.0454
     29 H13        -4.3255   -1.4078    8.4383 H           1 V15       0.0454
@<TRIPOS>BOND
     1     2     1  am
     2     3     1  am
     3     6     2   2
     4     2    12   1
     5     4     3   1
     6     3    16   2
     7     5     4   2
     8     5     6   1
     9    13     5   1
    10     7     8  ar
    11    14     7  ar
    12     8     9  ar
    13    10     9  ar
    14    11    10  ar
    15    14    11  ar
    16    15    13   1
    17    14    15   1
    18     1    17   1
    19     4    18   1
    20     7    19   1
    21     8    20   1
    22     9    21   1
    23    10    22   1
    24    11    23   1
    25    12    24   1
    26    12    25   1
    27    13    26   1
    28    13    27   1
    29    15    28   1
    30    15    29   1
@<TRIPOS>SUBSTRUCTURE
     1  V15      2

