@<TRIPOS>MOLECULE
2v00_ligand_041
    29    30
SMALL
GAST_HUCK
****
This file was generated by PARSER (from files_GN.cpp)

@<TRIPOS>ATOM
      1 N1          0.8600    2.4639    9.5009 N.am        1 V15      -0.1828
      2 C2          0.8278    3.8130    9.3143 C.2         1 V15       0.2430
      3 C3         -0.1948    1.8143    9.9840 C.2         1 V15       0.1868
      4 C4         -1.3368    2.4883   10.3097 C.2         1 V15      -0.0134
      5 C5         -1.3898    3.8314   10.1406 C.2         1 V15      -0.0129
      6 N6         -0.3061    4.4711    9.6481 N.2         1 V15      -0.2880
      7 C8         -1.5755    7.7754    8.6589 C.ar        1 V15      -0.0601
      8 C9         -1.4814    8.3051    7.3610 C.ar        1 V15      -0.0686
      9 C10        -2.2145    7.7267    6.3102 C.ar        1 V15      -0.0687
     10 C11        -3.0572    6.6297    6.5657 C.ar        1 V15      -0.0686
     11 C12        -3.1638    6.1074    7.8706 C.ar        1 V15      -0.0601
     12 N14         1.8639    4.4947    8.8043 N.pl3       1 V15      -0.2764
     13 C15        -2.5822    4.5919   10.5018 C.3         1 V15       0.0000
     14 C7         -2.4087    6.6632    8.9358 C.ar        1 V15      -0.0405
     15 C16        -2.5401    6.1332   10.3223 C.3         1 V15      -0.0061
     16 O15        -0.1173    0.6057   10.1434 O.2         1 V15      -0.4228
     17 H1          1.6610    1.9633    9.2696 H           1 V15       0.2550
     18 H2         -2.1198    1.9932   10.6716 H           1 V15       0.0229
     19 H3         -1.0408    8.2116    9.4064 H           1 V15       0.0557
     20 H4         -0.8858    9.1098    7.1809 H           1 V15       0.0599
     21 H5         -2.1401    8.1022    5.3639 H           1 V15       0.0559
     22 H6         -3.6016    6.2107    5.8002 H           1 V15       0.0599
     23 H7         -3.7988    5.3142    8.0423 H           1 V15       0.0557
     24 H8          1.7923    5.4487    8.6598 H           1 V15       0.1918
     25 H9          2.6778    4.0402    8.5533 H           1 V15       0.1918
     26 H10        -2.7750    4.4100   11.5654 H           1 V15       0.0499
     27 H11        -3.4313    4.1926    9.9466 H           1 V15       0.0499
     28 H12        -1.7303    6.5160   10.9486 H           1 V15       0.0454
     29 H13        -3.4646    6.5327   10.7309 H           1 V15       0.0454
@<TRIPOS>BOND
     1     2     1  am
     2     3     1  am
     3     6     2   2
     4     2    12   1
     5     4     3   1
     6     3    16   2
     7     5     4   2
     8     5     6   1
     9    13     5   1
    10     7     8  ar
    11    14     7  ar
    12     8     9  ar
    13    10     9  ar
    14    11    10  ar
    15    14    11  ar
    16    15    13   1
    17    14    15   1
    18     1    17   1
    19     4    18   1
    20     7    19   1
    21     8    20   1
    22     9    21   1
    23    10    22   1
    24    11    23   1
    25    12    24   1
    26    12    25   1
    27    13    26   1
    28    13    27   1
    29    15    28   1
    30    15    29   1
@<TRIPOS>SUBSTRUCTURE
     1  V15      2

