@<TRIPOS>MOLECULE
2v00_ligand_034
    29    30
SMALL
GAST_HUCK
****
This file was generated by PARSER (from files_GN.cpp)

@<TRIPOS>ATOM
      1 N1          3.8579    7.0594    8.9401 N.am        1 V15      -0.1828
      2 C2          2.6071    6.6730    9.2982 C.2         1 V15       0.2430
      3 C3          4.2352    8.3306    9.0386 C.2         1 V15       0.1868
      4 C4          3.3644    9.2832    9.4961 C.2         1 V15      -0.0134
      5 C5          2.1231    8.9089    9.8886 C.2         1 V15      -0.0129
      6 N6          1.7538    7.6196    9.7692 N.2         1 V15      -0.2880
      7 C8          3.1735    8.6234   12.9148 C.ar        1 V15      -0.0601
      8 C9          3.4470    7.5382   13.7695 C.ar        1 V15      -0.0686
      9 C10         2.4484    7.0499   14.6307 C.ar        1 V15      -0.0687
     10 C11         1.1844    7.6648   14.6568 C.ar        1 V15      -0.0686
     11 C12         0.9036    8.7453   13.7942 C.ar        1 V15      -0.0601
     12 N14         2.2468    5.3844    9.1996 N.pl3       1 V15      -0.2764
     13 C15         1.1874    9.8487   10.5046 C.3         1 V15       0.0000
     14 C7          1.8893    9.2176   12.8915 C.ar        1 V15      -0.0405
     15 C16         1.5907   10.3248   11.9302 C.3         1 V15      -0.0061
     16 O15         5.3826    8.6179    8.7408 O.2         1 V15      -0.4228
     17 H1          4.4818    6.4020    8.6081 H           1 V15       0.2550
     18 H2          3.6625   10.2325    9.5728 H           1 V15       0.0229
     19 H3          3.9159    8.9620   12.3013 H           1 V15       0.0557
     20 H4          4.3749    7.1057   13.7666 H           1 V15       0.0599
     21 H5          2.6445    6.2575   15.2450 H           1 V15       0.0559
     22 H6          0.4636    7.3284   15.3003 H           1 V15       0.0599
     23 H7         -0.0215    9.1748   13.8168 H           1 V15       0.0557
     24 H8          1.3557    5.1098    9.4608 H           1 V15       0.1918
     25 H9          2.8713    4.7301    8.8540 H           1 V15       0.1918
     26 H10         0.1975    9.3895   10.5580 H           1 V15       0.0499
     27 H11         1.0944   10.7207    9.8564 H           1 V15       0.0499
     28 H12         0.7691   10.9355   12.3226 H           1 V15       0.0454
     29 H13         2.4569   10.9906   11.8611 H           1 V15       0.0454
@<TRIPOS>BOND
     1     2     1  am
     2     3     1  am
     3     6     2   2
     4     2    12   1
     5     4     3   1
     6     3    16   2
     7     5     4   2
     8     5     6   1
     9    13     5   1
    10     7     8  ar
    11    14     7  ar
    12     8     9  ar
    13    10     9  ar
    14    11    10  ar
    15    14    11  ar
    16    15    13   1
    17    14    15   1
    18     1    17   1
    19     4    18   1
    20     7    19   1
    21     8    20   1
    22     9    21   1
    23    10    22   1
    24    11    23   1
    25    12    24   1
    26    12    25   1
    27    13    26   1
    28    13    27   1
    29    15    28   1
    30    15    29   1
@<TRIPOS>SUBSTRUCTURE
     1  V15      2

