@<TRIPOS>MOLECULE
2v00_ligand_021
    29    30
SMALL
GAST_HUCK
****
This file was generated by PARSER (from files_GN.cpp)

@<TRIPOS>ATOM
      1 N1          1.3957    5.9715   10.7298 N.am        1 V15      -0.1828
      2 C2          1.5576    5.2494    9.5932 C.2         1 V15       0.2430
      3 C3          0.1971    6.4070   11.0895 C.2         1 V15       0.1868
      4 C4         -0.9040    6.0799   10.3580 C.2         1 V15      -0.0134
      5 C5         -0.7700    5.4155    9.1823 C.2         1 V15      -0.0129
      6 N6          0.4650    4.9904    8.8245 N.2         1 V15      -0.2880
      7 C8         -2.8224    8.2932    7.5359 C.ar        1 V15      -0.0601
      8 C9         -2.7802    9.2582    6.5116 C.ar        1 V15      -0.0686
      9 C10        -3.0051    8.8800    5.1766 C.ar        1 V15      -0.0687
     10 C11        -3.2607    7.5330    4.8629 C.ar        1 V15      -0.0686
     11 C12        -3.2893    6.5664    5.8846 C.ar        1 V15      -0.0601
     12 N14         2.7794    4.8115    9.2712 N.pl3       1 V15      -0.2764
     13 C15        -1.9064    4.9662    8.3779 C.3         1 V15       0.0000
     14 C7         -3.0758    6.9340    7.2332 C.ar        1 V15      -0.0405
     15 C16        -3.1502    5.9038    8.2997 C.3         1 V15      -0.0061
     16 O15         0.1066    7.1132   12.0822 O.2         1 V15      -0.4228
     17 H1          2.1667    6.1916   11.2765 H           1 V15       0.2550
     18 H2         -1.7904    6.3207   10.7254 H           1 V15       0.0229
     19 H3         -2.6656    8.5885    8.5028 H           1 V15       0.0557
     20 H4         -2.5902   10.2374    6.7379 H           1 V15       0.0599
     21 H5         -2.9832    9.5845    4.4358 H           1 V15       0.0559
     22 H6         -3.4271    7.2541    3.8940 H           1 V15       0.0599
     23 H7         -3.4783    5.5915    5.6366 H           1 V15       0.0557
     24 H8          2.9305    4.3060    8.4595 H           1 V15       0.1918
     25 H9          3.5234    5.0054    9.8623 H           1 V15       0.1918
     26 H10        -2.2290    4.0101    8.7983 H           1 V15       0.0499
     27 H11        -1.5734    4.7540    7.3530 H           1 V15       0.0499
     28 H12        -3.3432    6.3928    9.2525 H           1 V15       0.0454
     29 H13        -4.0374    5.2885    8.1394 H           1 V15       0.0454
@<TRIPOS>BOND
     1     2     1  am
     2     3     1  am
     3     6     2   2
     4     2    12   1
     5     4     3   1
     6     3    16   2
     7     5     4   2
     8     5     6   1
     9    13     5   1
    10     7     8  ar
    11    14     7  ar
    12     8     9  ar
    13    10     9  ar
    14    11    10  ar
    15    14    11  ar
    16    15    13   1
    17    14    15   1
    18     1    17   1
    19     4    18   1
    20     7    19   1
    21     8    20   1
    22     9    21   1
    23    10    22   1
    24    11    23   1
    25    12    24   1
    26    12    25   1
    27    13    26   1
    28    13    27   1
    29    15    28   1
    30    15    29   1
@<TRIPOS>SUBSTRUCTURE
     1  V15      2

