@<TRIPOS>MOLECULE
2v00_ligand_038
    29    30
SMALL
GAST_HUCK
****
This file was generated by PARSER (from files_GN.cpp)

@<TRIPOS>ATOM
      1 N1        -10.2324   -0.6834    9.7992 N.am        1 V15      -0.1828
      2 C2        -11.3173   -0.0363   10.2876 C.2         1 V15       0.2430
      3 C3         -9.3171   -0.0339    9.0759 C.2         1 V15       0.1868
      4 C4         -9.4468    1.3058    8.8183 C.2         1 V15      -0.0134
      5 C5        -10.4730    1.9760    9.3866 C.2         1 V15      -0.0129
      6 N6        -11.4209    1.3000   10.0862 N.2         1 V15      -0.2880
      7 C8         -8.5451    6.3154    8.6169 C.ar        1 V15      -0.0601
      8 C9         -8.6682    7.6849    8.3248 C.ar        1 V15      -0.0686
      9 C10        -9.7289    8.4340    8.8993 C.ar        1 V15      -0.0687
     10 C11       -10.6557    7.8143    9.7629 C.ar        1 V15      -0.0686
     11 C12       -10.5168    6.4573   10.0716 C.ar        1 V15      -0.0601
     12 N14       -12.2159   -0.6944   11.0434 N.pl3       1 V15      -0.2764
     13 C15       -10.5922    3.4303    9.2584 C.3         1 V15       0.0000
     14 C7         -9.4721    5.6862    9.4822 C.ar        1 V15      -0.0405
     15 C16        -9.3549    4.2358    9.8032 C.3         1 V15      -0.0061
     16 O15        -8.3667   -0.6660    8.6527 O.2         1 V15      -0.4228
     17 H1        -10.1416   -1.6380    9.9709 H           1 V15       0.2550
     18 H2         -8.7887    1.7961    8.2461 H           1 V15       0.0229
     19 H3         -7.7759    5.7818    8.1920 H           1 V15       0.0557
     20 H4         -7.9901    8.1519    7.7068 H           1 V15       0.0599
     21 H5         -9.8137    9.4376    8.7101 H           1 V15       0.0559
     22 H6        -11.4092    8.3454   10.1943 H           1 V15       0.0599
     23 H7        -11.1766    6.0387   10.7260 H           1 V15       0.0557
     24 H8        -13.0041   -0.2421   11.4143 H           1 V15       0.1918
     25 H9        -12.0846   -1.6448   11.1948 H           1 V15       0.1918
     26 H10       -11.4813    3.7600    9.8259 H           1 V15       0.0499
     27 H11       -10.7600    3.6759    8.1912 H           1 V15       0.0499
     28 H12        -8.4355    3.7880    9.3780 H           1 V15       0.0454
     29 H13        -9.2929    4.1286   10.8989 H           1 V15       0.0454
@<TRIPOS>BOND
     1     2     1  am
     2     3     1  am
     3     6     2   2
     4     2    12   1
     5     4     3   1
     6     3    16   2
     7     5     4   2
     8     5     6   1
     9    13     5   1
    10     7     8  ar
    11    14     7  ar
    12     8     9  ar
    13    10     9  ar
    14    11    10  ar
    15    14    11  ar
    16    15    13   1
    17    14    15   1
    18     1    17   1
    19     4    18   1
    20     7    19   1
    21     8    20   1
    22     9    21   1
    23    10    22   1
    24    11    23   1
    25    12    24   1
    26    12    25   1
    27    13    26   1
    28    13    27   1
    29    15    28   1
    30    15    29   1
@<TRIPOS>SUBSTRUCTURE
     1  V15      2

