@<TRIPOS>MOLECULE
2v00_ligand_027
    29    30
SMALL
GAST_HUCK
****
This file was generated by PARSER (from files_GN.cpp)

@<TRIPOS>ATOM
      1 N1         -2.7086    2.1900   12.2052 N.am        1 V15      -0.1828
      2 C2         -3.5521    3.0796   11.6211 C.2         1 V15       0.2430
      3 C3         -1.4036    2.4369   12.2719 C.2         1 V15       0.1868
      4 C4         -0.8762    3.5702   11.7194 C.2         1 V15      -0.0134
      5 C5         -1.7029    4.4778   11.1464 C.2         1 V15      -0.0129
      6 N6         -3.0244    4.2227   11.1140 N.2         1 V15      -0.2880
      7 C8         -3.2478    5.3094    8.0326 C.ar        1 V15      -0.0601
      8 C9         -4.2843    5.7669    7.1951 C.ar        1 V15      -0.0686
      9 C10        -4.0510    6.8222    6.2963 C.ar        1 V15      -0.0687
     10 C11        -2.7837    7.4291    6.2477 C.ar        1 V15      -0.0686
     11 C12        -1.7626    7.0019    7.1187 C.ar        1 V15      -0.0601
     12 N14        -4.8650    2.8315   11.5117 N.pl3       1 V15      -0.2764
     13 C15        -1.2073    5.6851   10.4843 C.3         1 V15       0.0000
     14 C7         -1.9788    5.9406    8.0345 C.ar        1 V15      -0.0405
     15 C16        -0.8979    5.4869    8.9637 C.3         1 V15      -0.0061
     16 O15        -0.6839    1.6279   12.8394 O.2         1 V15      -0.4228
     17 H1         -3.0605    1.3601   12.5646 H           1 V15       0.2550
     18 H2          0.1076    3.7148   11.7299 H           1 V15       0.0229
     19 H3         -3.4277    4.5034    8.6346 H           1 V15       0.0557
     20 H4         -5.2073    5.3288    7.2373 H           1 V15       0.0599
     21 H5         -4.7977    7.1408    5.6733 H           1 V15       0.0559
     22 H6         -2.6057    8.1859    5.5813 H           1 V15       0.0599
     23 H7         -0.8565    7.4726    7.0754 H           1 V15       0.0557
     24 H8         -5.4406    3.4661   11.0559 H           1 V15       0.1918
     25 H9         -5.2379    2.0018   11.8523 H           1 V15       0.1918
     26 H10        -0.2965    6.0182   10.9930 H           1 V15       0.0499
     27 H11        -1.9291    6.4982   10.6194 H           1 V15       0.0499
     28 H12        -0.6762    4.4385    8.7530 H           1 V15       0.0454
     29 H13         0.0222    6.0334    8.7448 H           1 V15       0.0454
@<TRIPOS>BOND
     1     2     1  am
     2     3     1  am
     3     6     2   2
     4     2    12   1
     5     4     3   1
     6     3    16   2
     7     5     4   2
     8     5     6   1
     9    13     5   1
    10     7     8  ar
    11    14     7  ar
    12     8     9  ar
    13    10     9  ar
    14    11    10  ar
    15    14    11  ar
    16    15    13   1
    17    14    15   1
    18     1    17   1
    19     4    18   1
    20     7    19   1
    21     8    20   1
    22     9    21   1
    23    10    22   1
    24    11    23   1
    25    12    24   1
    26    12    25   1
    27    13    26   1
    28    13    27   1
    29    15    28   1
    30    15    29   1
@<TRIPOS>SUBSTRUCTURE
     1  V15      2

