@<TRIPOS>MOLECULE
2v00_ligand_009
    29    30
SMALL
GAST_HUCK
****
This file was generated by PARSER (from files_GN.cpp)

@<TRIPOS>ATOM
      1 N1        -12.7245   -0.6505   10.5426 N.am        1 V15      -0.1828
      2 C2        -12.1191    0.5629   10.5368 C.2         1 V15       0.2430
      3 C3        -12.1383   -1.7096    9.9901 C.2         1 V15       0.1868
      4 C4        -10.8976   -1.6001    9.4268 C.2         1 V15      -0.0134
      5 C5        -10.2742   -0.3975    9.4127 C.2         1 V15      -0.0129
      6 N6        -10.8921    0.6722    9.9615 N.2         1 V15      -0.2880
      7 C8         -7.1330    0.4515   11.6809 C.ar        1 V15      -0.0601
      8 C9         -6.3392    1.4256   12.3158 C.ar        1 V15      -0.0686
      9 C10        -5.3498    2.1121   11.5879 C.ar        1 V15      -0.0687
     10 C11        -5.1627    1.8349   10.2228 C.ar        1 V15      -0.0686
     11 C12        -5.9575    0.8634    9.5880 C.ar        1 V15      -0.0601
     12 N14       -12.7401    1.6077   11.1002 N.pl3       1 V15      -0.2764
     13 C15        -8.9613   -0.2287    8.7994 C.3         1 V15       0.0000
     14 C7         -6.9470    0.1535   10.3100 C.ar        1 V15      -0.0405
     15 C16        -7.7864   -0.8623    9.6172 C.3         1 V15      -0.0061
     16 O15       -12.7389   -2.7731    9.9724 O.2         1 V15      -0.4228
     17 H1        -13.5979   -0.7323   10.9574 H           1 V15       0.2550
     18 H2        -10.4657   -2.3992    9.0198 H           1 V15       0.0229
     19 H3         -7.8534   -0.0319   12.2235 H           1 V15       0.0557
     20 H4         -6.4856    1.6384   13.3053 H           1 V15       0.0599
     21 H5         -4.7696    2.8165   12.0475 H           1 V15       0.0559
     22 H6         -4.4513    2.3415    9.6906 H           1 V15       0.0599
     23 H7         -5.8092    0.6760    8.5927 H           1 V15       0.0557
     24 H8        -12.3264    2.4849   11.1095 H           1 V15       0.1918
     25 H9        -13.5985    1.4652   11.5307 H           1 V15       0.1918
     26 H10        -8.7752    0.8373    8.6329 H           1 V15       0.0499
     27 H11        -8.9885   -0.6782    7.8017 H           1 V15       0.0499
     28 H12        -7.1428   -1.4344    8.9421 H           1 V15       0.0454
     29 H13        -8.1616   -1.5901   10.3433 H           1 V15       0.0454
@<TRIPOS>BOND
     1     2     1  am
     2     3     1  am
     3     6     2   2
     4     2    12   1
     5     4     3   1
     6     3    16   2
     7     5     4   2
     8     5     6   1
     9    13     5   1
    10     7     8  ar
    11    14     7  ar
    12     8     9  ar
    13    10     9  ar
    14    11    10  ar
    15    14    11  ar
    16    15    13   1
    17    14    15   1
    18     1    17   1
    19     4    18   1
    20     7    19   1
    21     8    20   1
    22     9    21   1
    23    10    22   1
    24    11    23   1
    25    12    24   1
    26    12    25   1
    27    13    26   1
    28    13    27   1
    29    15    28   1
    30    15    29   1
@<TRIPOS>SUBSTRUCTURE
     1  V15      2

