@<TRIPOS>MOLECULE
2v00_ligand_005
    29    30
SMALL
GAST_HUCK
****
This file was generated by PARSER (from files_GN.cpp)

@<TRIPOS>ATOM
      1 N1          2.4160    5.7757   11.7995 N.am        1 V15      -0.1828
      2 C2          2.6232    6.2175   10.5336 C.2         1 V15       0.2430
      3 C3          2.3006    6.6431   12.8071 C.2         1 V15       0.1868
      4 C4          2.3518    7.9917   12.5710 C.2         1 V15      -0.0134
      5 C5          2.5519    8.4450   11.3115 C.2         1 V15      -0.0129
      6 N6          2.7037    7.5543   10.3143 N.2         1 V15      -0.2880
      7 C8         -0.0394   11.0653    8.6436 C.ar        1 V15      -0.0601
      8 C9         -0.6891   10.7227    7.4426 C.ar        1 V15      -0.0686
      9 C10        -0.9441    9.3735    7.1401 C.ar        1 V15      -0.0687
     10 C11        -0.5639    8.3708    8.0492 C.ar        1 V15      -0.0686
     11 C12         0.0459    8.7188    9.2690 C.ar        1 V15      -0.0601
     12 N14         2.7622    5.3473    9.5241 N.pl3       1 V15      -0.2764
     13 C15         2.5066    9.8659   10.9848 C.3         1 V15       0.0000
     14 C7          0.3585   10.0678    9.5687 C.ar        1 V15      -0.0405
     15 C16         1.0590   10.4351   10.8401 C.3         1 V15      -0.0061
     16 O15         2.1729    6.2192   13.9436 O.2         1 V15      -0.4228
     17 H1          2.3666    4.8171   11.9646 H           1 V15       0.2550
     18 H2          2.2160    8.6304   13.3251 H           1 V15       0.0229
     19 H3          0.1298   12.0542    8.8426 H           1 V15       0.0557
     20 H4         -0.9759   11.4546    6.7886 H           1 V15       0.0599
     21 H5         -1.4211    9.1232    6.2706 H           1 V15       0.0559
     22 H6         -0.7439    7.3882    7.8270 H           1 V15       0.0599
     23 H7          0.2497    7.9763    9.9430 H           1 V15       0.0557
     24 H8          2.9258    5.6684    8.6260 H           1 V15       0.1918
     25 H9          2.7605    4.3943    9.7043 H           1 V15       0.1918
     26 H10         3.0563   10.0603   10.0603 H           1 V15       0.0499
     27 H11         3.0312   10.4245   11.7678 H           1 V15       0.0499
     28 H12         1.1355   11.5236   10.9151 H           1 V15       0.0454
     29 H13         0.4396   10.1209   11.6856 H           1 V15       0.0454
@<TRIPOS>BOND
     1     2     1  am
     2     3     1  am
     3     6     2   2
     4     2    12   1
     5     4     3   1
     6     3    16   2
     7     5     4   2
     8     5     6   1
     9    13     5   1
    10     7     8  ar
    11    14     7  ar
    12     8     9  ar
    13    10     9  ar
    14    11    10  ar
    15    14    11  ar
    16    15    13   1
    17    14    15   1
    18     1    17   1
    19     4    18   1
    20     7    19   1
    21     8    20   1
    22     9    21   1
    23    10    22   1
    24    11    23   1
    25    12    24   1
    26    12    25   1
    27    13    26   1
    28    13    27   1
    29    15    28   1
    30    15    29   1
@<TRIPOS>SUBSTRUCTURE
     1  V15      2

