@<TRIPOS>MOLECULE
2v00_ligand_002
    29    30
SMALL
GAST_HUCK
****
This file was generated by PARSER (from files_GN.cpp)

@<TRIPOS>ATOM
      1 N1          0.4285    4.4593   10.5405 N.am        1 V15      -0.1828
      2 C2          0.9521    5.3604    9.6701 C.2         1 V15       0.2430
      3 C3         -0.8536    4.5163   10.8919 C.2         1 V15       0.1868
      4 C4         -1.6728    5.4839   10.3783 C.2         1 V15      -0.0134
      5 C5         -1.1680    6.3898    9.5076 C.2         1 V15      -0.0129
      6 N6          0.1374    6.3250    9.1724 N.2         1 V15      -0.2880
      7 C8         -4.0912    6.4159    6.4199 C.ar        1 V15      -0.0601
      8 C9         -4.8138    5.3159    5.9243 C.ar        1 V15      -0.0686
      9 C10        -4.1887    4.0633    5.7924 C.ar        1 V15      -0.0687
     10 C11        -2.8393    3.9112    6.1588 C.ar        1 V15      -0.0686
     11 C12        -2.1166    5.0132    6.6537 C.ar        1 V15      -0.0601
     12 N14         2.2396    5.2859    9.3056 N.pl3       1 V15      -0.2764
     13 C15        -1.9673    7.4494    8.9043 C.3         1 V15       0.0000
     14 C7         -2.7323    6.2799    6.7901 C.ar        1 V15      -0.0405
     15 C16        -1.9831    7.4389    7.3508 C.3         1 V15      -0.0061
     16 O15        -1.2830    3.6849   11.6775 O.2         1 V15      -0.4228
     17 H1          1.0045    3.7715   10.9103 H           1 V15       0.2550
     18 H2         -2.6298    5.5143   10.6465 H           1 V15       0.0229
     19 H3         -4.5668    7.3164    6.5189 H           1 V15       0.0557
     20 H4         -5.7964    5.4274    5.6644 H           1 V15       0.0599
     21 H5         -4.7159    3.2639    5.4347 H           1 V15       0.0559
     22 H6         -2.3856    2.9997    6.0655 H           1 V15       0.0599
     23 H7         -1.1380    4.8860    6.9205 H           1 V15       0.0557
     24 H8          2.6035    5.9187    8.6651 H           1 V15       0.1918
     25 H9          2.7920    4.5620    9.6448 H           1 V15       0.1918
     26 H10        -1.5562    8.4061    9.2355 H           1 V15       0.0499
     27 H11        -3.0033    7.4096    9.2507 H           1 V15       0.0499
     28 H12        -0.9624    7.4516    6.9590 H           1 V15       0.0454
     29 H13        -2.4420    8.3725    7.0114 H           1 V15       0.0454
@<TRIPOS>BOND
     1     2     1  am
     2     3     1  am
     3     6     2   2
     4     2    12   1
     5     4     3   1
     6     3    16   2
     7     5     4   2
     8     5     6   1
     9    13     5   1
    10     7     8  ar
    11    14     7  ar
    12     8     9  ar
    13    10     9  ar
    14    11    10  ar
    15    14    11  ar
    16    15    13   1
    17    14    15   1
    18     1    17   1
    19     4    18   1
    20     7    19   1
    21     8    20   1
    22     9    21   1
    23    10    22   1
    24    11    23   1
    25    12    24   1
    26    12    25   1
    27    13    26   1
    28    13    27   1
    29    15    28   1
    30    15    29   1
@<TRIPOS>SUBSTRUCTURE
     1  V15      2

