@<TRIPOS>MOLECULE
2v00_ligand_011
    29    30
SMALL
GAST_HUCK
****
This file was generated by PARSER (from files_GN.cpp)

@<TRIPOS>ATOM
      1 N1          3.1211    7.4189    9.3328 N.am        1 V15      -0.1828
      2 C2          2.6497    6.3974   10.0946 C.2         1 V15       0.2430
      3 C3          3.1551    8.6647    9.8032 C.2         1 V15       0.1868
      4 C4          2.7020    8.9427   11.0643 C.2         1 V15      -0.0134
      5 C5          2.2142    7.9416   11.8360 C.2         1 V15      -0.0129
      6 N6          2.1992    6.6810   11.3459 N.2         1 V15      -0.2880
      7 C8          2.2860    8.5899   16.6875 C.ar        1 V15      -0.0601
      8 C9          1.7451    9.1913   17.8399 C.ar        1 V15      -0.0686
      9 C10         1.1052   10.4408   17.7479 C.ar        1 V15      -0.0687
     10 C11         1.0186   11.0952   16.5057 C.ar        1 V15      -0.0686
     11 C12         1.5597   10.4914   15.3555 C.ar        1 V15      -0.0601
     12 N14         2.6473    5.1465    9.6168 N.pl3       1 V15      -0.2764
     13 C15         1.6763    8.2009   13.1666 C.3         1 V15       0.0000
     14 C7          2.1942    9.2268   15.4261 C.ar        1 V15      -0.0405
     15 C16         2.7696    8.6133   14.1971 C.3         1 V15      -0.0061
     16 O15         3.6005    9.5505    9.0888 O.2         1 V15      -0.4228
     17 H1          3.4421    7.2342    8.4377 H           1 V15       0.2550
     18 H2          2.7088    9.8807   11.3942 H           1 V15       0.0229
     19 H3          2.7495    7.6834   16.7745 H           1 V15       0.0557
     20 H4          1.8083    8.7201   18.7463 H           1 V15       0.0599
     21 H5          0.6977   10.8746   18.5831 H           1 V15       0.0559
     22 H6          0.5571   12.0080   16.4394 H           1 V15       0.0599
     23 H7          1.4898   10.9841   14.4636 H           1 V15       0.0557
     24 H8          2.3382    4.4129   10.1720 H           1 V15       0.1918
     25 H9          2.9768    4.9763    8.7203 H           1 V15       0.1918
     26 H10         1.1655    7.3113   13.5478 H           1 V15       0.0499
     27 H11         0.9176    8.9837   13.0756 H           1 V15       0.0499
     28 H12         3.4590    9.3384   13.7527 H           1 V15       0.0454
     29 H13         3.3597    7.7239   14.4447 H           1 V15       0.0454
@<TRIPOS>BOND
     1     2     1  am
     2     3     1  am
     3     6     2   2
     4     2    12   1
     5     4     3   1
     6     3    16   2
     7     5     4   2
     8     5     6   1
     9    13     5   1
    10     7     8  ar
    11    14     7  ar
    12     8     9  ar
    13    10     9  ar
    14    11    10  ar
    15    14    11  ar
    16    15    13   1
    17    14    15   1
    18     1    17   1
    19     4    18   1
    20     7    19   1
    21     8    20   1
    22     9    21   1
    23    10    22   1
    24    11    23   1
    25    12    24   1
    26    12    25   1
    27    13    26   1
    28    13    27   1
    29    15    28   1
    30    15    29   1
@<TRIPOS>SUBSTRUCTURE
     1  V15      2

