@<TRIPOS>MOLECULE
2v00_ligand_030
    29    30
SMALL
GAST_HUCK
****
This file was generated by PARSER (from files_GN.cpp)

@<TRIPOS>ATOM
      1 N1        -11.5165    4.5321   14.4778 N.am        1 V15      -0.1828
      2 C2        -10.5213    5.4567   14.5319 C.2         1 V15       0.2430
      3 C3        -12.0012    4.1181   13.3070 C.2         1 V15       0.1868
      4 C4        -11.5267    4.6356   12.1335 C.2         1 V15      -0.0134
      5 C5        -10.5487    5.5704   12.1695 C.2         1 V15      -0.0129
      6 N6        -10.0489    5.9599   13.3622 N.2         1 V15      -0.2880
      7 C8         -9.7911    4.2886    8.4617 C.ar        1 V15      -0.0601
      8 C9         -9.9790    3.0894    7.7508 C.ar        1 V15      -0.0686
      9 C10        -9.3359    1.9136    8.1736 C.ar        1 V15      -0.0687
     10 C11        -8.5012    1.9410    9.3048 C.ar        1 V15      -0.0686
     11 C12        -8.3287    3.1384   10.0256 C.ar        1 V15      -0.0601
     12 N14       -10.0282    5.8808   15.7053 N.pl3       1 V15      -0.2764
     13 C15       -10.0673    6.2424   10.9688 C.3         1 V15       0.0000
     14 C7         -8.9858    4.3281    9.6264 C.ar        1 V15      -0.0405
     15 C16        -8.7825    5.6078   10.3664 C.3         1 V15      -0.0061
     16 O15       -12.8827    3.2721   13.2971 O.2         1 V15      -0.4228
     17 H1        -11.8806    4.1719   15.3017 H           1 V15       0.2550
     18 H2        -11.9186    4.3416   11.2674 H           1 V15       0.0229
     19 H3        -10.2497    5.1346    8.1187 H           1 V15       0.0557
     20 H4        -10.5763    3.0748    6.9204 H           1 V15       0.0599
     21 H5         -9.4668    1.0430    7.6526 H           1 V15       0.0559
     22 H6         -8.0147    1.0903    9.5982 H           1 V15       0.0599
     23 H7         -7.7017    3.1370   10.8331 H           1 V15       0.0557
     24 H8         -9.3286    6.5537   15.7252 H           1 V15       0.1918
     25 H9        -10.3869    5.5334   16.5357 H           1 V15       0.1918
     26 H10        -9.8485    7.2834   11.2223 H           1 V15       0.0499
     27 H11       -10.8551    6.2890   10.2114 H           1 V15       0.0499
     28 H12        -8.0571    5.4822   11.1762 H           1 V15       0.0454
     29 H13        -8.3490    6.3243    9.6652 H           1 V15       0.0454
@<TRIPOS>BOND
     1     2     1  am
     2     3     1  am
     3     6     2   2
     4     2    12   1
     5     4     3   1
     6     3    16   2
     7     5     4   2
     8     5     6   1
     9    13     5   1
    10     7     8  ar
    11    14     7  ar
    12     8     9  ar
    13    10     9  ar
    14    11    10  ar
    15    14    11  ar
    16    15    13   1
    17    14    15   1
    18     1    17   1
    19     4    18   1
    20     7    19   1
    21     8    20   1
    22     9    21   1
    23    10    22   1
    24    11    23   1
    25    12    24   1
    26    12    25   1
    27    13    26   1
    28    13    27   1
    29    15    28   1
    30    15    29   1
@<TRIPOS>SUBSTRUCTURE
     1  V15      2

