@<TRIPOS>MOLECULE
2v00_ligand_010
    29    30
SMALL
GAST_HUCK
****
This file was generated by PARSER (from files_GN.cpp)

@<TRIPOS>ATOM
      1 N1          2.3316    5.6822   11.8888 N.am        1 V15      -0.1828
      2 C2          2.2902    6.2281   10.6455 C.2         1 V15       0.2430
      3 C3          2.0611    6.4230   12.9663 C.2         1 V15       0.1868
      4 C4          1.6691    7.7252   12.8368 C.2         1 V15      -0.0134
      5 C5          1.6475    8.2916   11.6055 C.2         1 V15      -0.0129
      6 N6          1.9590    7.5387   10.5262 N.2         1 V15      -0.2880
      7 C8          4.1678    9.7480   13.1273 C.ar        1 V15      -0.0601
      8 C9          4.7917    9.8726   14.3843 C.ar        1 V15      -0.0686
      9 C10         4.5941   11.0327   15.1531 C.ar        1 V15      -0.0687
     10 C11         3.7881   12.0740   14.6550 C.ar        1 V15      -0.0686
     11 C12         3.1518   11.9388   13.4085 C.ar        1 V15      -0.0601
     12 N14         2.6075    5.4754    9.5818 N.pl3       1 V15      -0.2764
     13 C15         1.3502    9.7028   11.4000 C.3         1 V15       0.0000
     14 C7          3.3176   10.7664   12.6327 C.ar        1 V15      -0.0405
     15 C16         2.6131   10.6120   11.3264 C.3         1 V15      -0.0061
     16 O15         2.2053    5.9295   14.0718 O.2         1 V15      -0.4228
     17 H1          2.5772    4.7487   11.9798 H           1 V15       0.2550
     18 H2          1.4560    8.2610   13.6470 H           1 V15       0.0229
     19 H3          4.3363    8.9002   12.5800 H           1 V15       0.0557
     20 H4          5.3941    9.1242   14.7334 H           1 V15       0.0599
     21 H5          5.0455   11.1258   16.0632 H           1 V15       0.0559
     22 H6          3.6694   12.9310   15.1982 H           1 V15       0.0599
     23 H7          2.5642   12.7052   13.0697 H           1 V15       0.0557
     24 H8          2.6471    5.8690    8.6967 H           1 V15       0.1918
     25 H9          2.8505    4.5417    9.7112 H           1 V15       0.1918
     26 H10         0.6856   10.0818   12.1828 H           1 V15       0.0499
     27 H11         0.7968    9.8045   10.4613 H           1 V15       0.0499
     28 H12         2.2854   11.5925   10.9659 H           1 V15       0.0454
     29 H13         3.3127   10.2325   10.5773 H           1 V15       0.0454
@<TRIPOS>BOND
     1     2     1  am
     2     3     1  am
     3     6     2   2
     4     2    12   1
     5     4     3   1
     6     3    16   2
     7     5     4   2
     8     5     6   1
     9    13     5   1
    10     7     8  ar
    11    14     7  ar
    12     8     9  ar
    13    10     9  ar
    14    11    10  ar
    15    14    11  ar
    16    15    13   1
    17    14    15   1
    18     1    17   1
    19     4    18   1
    20     7    19   1
    21     8    20   1
    22     9    21   1
    23    10    22   1
    24    11    23   1
    25    12    24   1
    26    12    25   1
    27    13    26   1
    28    13    27   1
    29    15    28   1
    30    15    29   1
@<TRIPOS>SUBSTRUCTURE
     1  V15      2

