@<TRIPOS>MOLECULE
2v00_ligand_004
    29    30
SMALL
GAST_HUCK
****
This file was generated by PARSER (from files_GN.cpp)

@<TRIPOS>ATOM
      1 N1          2.3295    5.7763   11.8554 N.am        1 V15      -0.1828
      2 C2          2.3544    6.2203   10.5729 C.2         1 V15       0.2430
      3 C3          2.0893    6.6187   12.8598 C.2         1 V15       0.1868
      4 C4          1.7876    7.9307   12.6139 C.2         1 V15      -0.0134
      5 C5          1.7808    8.3861   11.3388 C.2         1 V15      -0.0129
      6 N6          2.0850    7.5314   10.3364 N.2         1 V15      -0.2880
      7 C8          3.0709   13.1364   10.7979 C.ar        1 V15      -0.0601
      8 C9          2.8042   14.4432   10.3460 C.ar        1 V15      -0.0686
      9 C10         1.8450   14.6588    9.3418 C.ar        1 V15      -0.0687
     10 C11         1.1736   13.5648    8.7702 C.ar        1 V15      -0.0686
     11 C12         1.4574   12.2578    9.2085 C.ar        1 V15      -0.0601
     12 N14         2.6642    5.3754    9.5805 N.pl3       1 V15      -0.2764
     13 C15         1.4350    9.7610   10.9910 C.3         1 V15       0.0000
     14 C7          2.3917   12.0210   10.2474 C.ar        1 V15      -0.0405
     15 C16         2.6915   10.6331   10.7080 C.3         1 V15      -0.0061
     16 O15         2.1645    6.2037   14.0065 O.2         1 V15      -0.4228
     17 H1          2.5091    4.8372   12.0296 H           1 V15       0.2550
     18 H2          1.5731    8.5388   13.3714 H           1 V15       0.0229
     19 H3          3.7765   13.0057   11.5259 H           1 V15       0.0557
     20 H4          3.3094   15.2372   10.7464 H           1 V15       0.0599
     21 H5          1.6403   15.6091    9.0231 H           1 V15       0.0559
     22 H6          0.4864   13.7186    8.0289 H           1 V15       0.0599
     23 H7          0.9704   11.4801    8.7600 H           1 V15       0.0557
     24 H8          2.7551    5.7008    8.6711 H           1 V15       0.1918
     25 H9          2.8465    4.4440    9.7826 H           1 V15       0.1918
     26 H10         0.8504   10.2352   11.7862 H           1 V15       0.0499
     27 H11         0.7915    9.7308   10.1087 H           1 V15       0.0499
     28 H12         3.3034   10.1515    9.9405 H           1 V15       0.0454
     29 H13         3.2856   10.6619   11.6270 H           1 V15       0.0454
@<TRIPOS>BOND
     1     2     1  am
     2     3     1  am
     3     6     2   2
     4     2    12   1
     5     4     3   1
     6     3    16   2
     7     5     4   2
     8     5     6   1
     9    13     5   1
    10     7     8  ar
    11    14     7  ar
    12     8     9  ar
    13    10     9  ar
    14    11    10  ar
    15    14    11  ar
    16    15    13   1
    17    14    15   1
    18     1    17   1
    19     4    18   1
    20     7    19   1
    21     8    20   1
    22     9    21   1
    23    10    22   1
    24    11    23   1
    25    12    24   1
    26    12    25   1
    27    13    26   1
    28    13    27   1
    29    15    28   1
    30    15    29   1
@<TRIPOS>SUBSTRUCTURE
     1  V15      2

