@<TRIPOS>MOLECULE
2v00_ligand_022
    29    30
SMALL
GAST_HUCK
****
This file was generated by PARSER (from files_GN.cpp)

@<TRIPOS>ATOM
      1 N1          2.4302    6.8655    9.2286 N.am        1 V15      -0.1828
      2 C2          1.4378    5.9556    9.0336 C.2         1 V15       0.2430
      3 C3          2.1548    8.1678    9.2279 C.2         1 V15       0.1868
      4 C4          0.8792    8.6206    9.0259 C.2         1 V15      -0.0134
      5 C5         -0.1171    7.7347    8.8118 C.2         1 V15      -0.0129
      6 N6          0.1735    6.4167    8.8332 N.2         1 V15      -0.2880
      7 C8         -3.0962    5.4671    8.8931 C.ar        1 V15      -0.0601
      8 C9         -3.3522    4.0876    9.0255 C.ar        1 V15      -0.0686
      9 C10        -3.1603    3.2256    7.9325 C.ar        1 V15      -0.0687
     10 C11        -2.7251    3.7468    6.7002 C.ar        1 V15      -0.0686
     11 C12        -2.4477    5.1242    6.5756 C.ar        1 V15      -0.0601
     12 N14         1.6962    4.6346    9.0266 N.pl3       1 V15      -0.2764
     13 C15        -1.5104    8.1516    8.6874 C.3         1 V15       0.0000
     14 C7         -2.6033    6.0032    7.6794 C.ar        1 V15      -0.0405
     15 C16        -2.3246    7.4660    7.5456 C.3         1 V15      -0.0061
     16 O15         3.0692    8.9625    9.4051 O.2         1 V15      -0.4228
     17 H1          3.3425    6.5686    9.3596 H           1 V15       0.2550
     18 H2          0.6810    9.5862    9.0916 H           1 V15       0.0229
     19 H3         -3.2687    6.0781    9.6964 H           1 V15       0.0557
     20 H4         -3.6660    3.7104    9.9213 H           1 V15       0.0599
     21 H5         -3.3454    2.2245    8.0298 H           1 V15       0.0559
     22 H6         -2.6101    3.1269    5.8964 H           1 V15       0.0599
     23 H7         -2.1422    5.4836    5.6646 H           1 V15       0.0557
     24 H8          0.9693    4.0068    8.8844 H           1 V15       0.1918
     25 H9          2.6008    4.3044    9.1402 H           1 V15       0.1918
     26 H10        -1.5697    9.2352    8.5167 H           1 V15       0.0499
     27 H11        -1.9827    7.9612    9.6487 H           1 V15       0.0499
     28 H12        -1.8094    7.6748    6.6033 H           1 V15       0.0454
     29 H13        -3.2922    7.9684    7.4917 H           1 V15       0.0454
@<TRIPOS>BOND
     1     2     1  am
     2     3     1  am
     3     6     2   2
     4     2    12   1
     5     4     3   1
     6     3    16   2
     7     5     4   2
     8     5     6   1
     9    13     5   1
    10     7     8  ar
    11    14     7  ar
    12     8     9  ar
    13    10     9  ar
    14    11    10  ar
    15    14    11  ar
    16    15    13   1
    17    14    15   1
    18     1    17   1
    19     4    18   1
    20     7    19   1
    21     8    20   1
    22     9    21   1
    23    10    22   1
    24    11    23   1
    25    12    24   1
    26    12    25   1
    27    13    26   1
    28    13    27   1
    29    15    28   1
    30    15    29   1
@<TRIPOS>SUBSTRUCTURE
     1  V15      2

