@<TRIPOS>MOLECULE
2v7a_ligand_088
    66    70
SMALL
GAST_HUCK
****
This file was generated by PARSER (from files_GN.cpp)

@<TRIPOS>ATOM
      1 N1        -40.9857  -46.7720  -10.6591 N.am        1 MOL      -0.2534
      2 N2        -38.9656  -48.4069  -13.1275 N.pl3       1 MOL      -0.2433
      3 C3        -40.5860  -49.7740  -12.6455 C.2         1 MOL       0.1027
      4 N4        -39.4913  -49.5584  -13.4141 N.2         1 MOL      -0.2404
      5 N5        -41.4219  -50.8304  -12.5817 N.am        1 MOL      -0.2391
      6 C6        -41.3686  -51.9613  -13.2775 C.2         1 MOL       0.2181
      7 C7        -42.2015  -53.0461  -12.9954 C.ar        1 MOL       0.0412
      8 O8        -40.5422  -52.0560  -14.1830 O.2         1 MOL      -0.3816
      9 C9        -42.2226  -54.1919  -13.8412 C.ar        1 MOL      -0.0531
     10 C10       -42.9696  -55.3273  -13.5260 C.ar        1 MOL      -0.0381
     11 C11       -43.8190  -54.2211  -11.5444 C.ar        1 MOL      -0.0381
     12 C12       -43.0408  -53.0974  -11.8408 C.ar        1 MOL      -0.0531
     13 C13       -39.6983  -47.8250  -12.1674 C.2         1 MOL       0.0786
     14 C14       -40.7327  -48.6501  -11.8526 C.2         1 MOL       0.0146
     15 C15       -41.6080  -48.0624  -10.8609 C.3         1 MOL       0.0514
     16 C16       -39.7506  -46.5956  -11.3976 C.3         1 MOL       0.0897
     17 N17       -44.5004  -56.4938  -12.0424 N.pl3       1 MOL      -0.2958
     18 C18       -45.9509  -56.4862  -12.0393 C.3         1 MOL       0.0680
     19 C19       -46.4440  -57.5008  -13.1064 C.3         1 MOL      -0.0118
     20 N20       -45.8665  -58.8681  -12.9127 N.4         1 MOL       0.2359
     21 C21       -44.3722  -58.8239  -12.8286 C.3         1 MOL      -0.0118
     22 C22       -43.8674  -57.7790  -11.8023 C.3         1 MOL       0.0680
     23 C23       -46.5113  -59.6318  -11.8051 C.3         1 MOL      -0.0430
     24 C24       -43.7841  -55.3809  -12.3619 C.ar        1 MOL       0.0460
     25 C25       -41.5453  -45.8160   -9.9014 C.2         1 MOL       0.2222
     26 O26       -42.6849  -45.9666   -9.4728 O.2         1 MOL      -0.3907
     27 C27       -40.8610  -42.1095  -10.2920 C.ar        1 MOL      -0.0555
     28 C28       -40.9834  -41.0705  -11.2327 C.ar        1 MOL      -0.0680
     29 C29       -41.0230  -43.4720  -10.6586 C.ar        1 MOL       0.0044
     30 C31       -41.2250  -41.3771  -12.5836 C.ar        1 MOL      -0.0684
     31 C33       -41.2260  -43.7553  -12.0392 C.ar        1 MOL      -0.0555
     32 C20       -40.8965  -44.5284   -9.5968 C.3         1 MOL       0.1804
     33 C35       -41.3198  -42.7196  -12.9920 C.ar        1 MOL      -0.0680
     34 C36       -41.3843  -44.9149   -7.2036 C.3         1 MOL       0.0424
     35 O34       -41.3933  -44.0154   -8.3320 O.3         1 MOL      -0.3473
     36 H1        -38.1758  -48.0184  -13.5486 H           1 MOL       0.2389
     37 H2        -42.1284  -50.7607  -11.9251 H           1 MOL       0.2188
     38 H3        -41.6698  -54.2202  -14.7025 H           1 MOL       0.0636
     39 H4        -42.9520  -56.1194  -14.1735 H           1 MOL       0.0530
     40 H5        -44.3754  -54.2179  -10.6855 H           1 MOL       0.0530
     41 H6        -43.0743  -52.3159  -11.1855 H           1 MOL       0.0636
     42 H7        -42.6138  -47.9734  -11.2732 H           1 MOL       0.0576
     43 H8        -41.6131  -48.6575   -9.9436 H           1 MOL       0.0576
     44 H9        -38.8800  -46.5389  -10.7303 H           1 MOL       0.0708
     45 H10       -39.7949  -45.7225  -12.0621 H           1 MOL       0.0708
     46 H11       -46.3794  -55.5137  -12.2887 H           1 MOL       0.0569
     47 H12       -46.3170  -56.7580  -11.0481 H           1 MOL       0.0569
     48 H13       -46.1395  -57.1387  -14.0948 H           1 MOL       0.0834
     49 H14       -47.5370  -57.5354  -13.1104 H           1 MOL       0.0834
     50 H15       -46.0822  -59.3909  -13.7645 H           1 MOL       0.2032
     51 H16       -43.9774  -58.5620  -13.8165 H           1 MOL       0.0834
     52 H17       -43.9624  -59.8080  -12.5791 H           1 MOL       0.0834
     53 H18       -44.1182  -58.1060  -10.7909 H           1 MOL       0.0569
     54 H19       -42.7749  -57.7402  -11.8440 H           1 MOL       0.0569
     55 H20       -47.5798  -59.7312  -11.9986 H           1 MOL       0.0778
     56 H21       -46.3781  -59.1464  -10.8361 H           1 MOL       0.0778
     57 H22       -46.0924  -60.6370  -11.7463 H           1 MOL       0.0778
     58 H23       -40.6562  -41.8559   -9.3228 H           1 MOL       0.0562
     59 H24       -40.8989  -40.0955  -10.9390 H           1 MOL       0.0600
     60 H25       -41.3067  -40.6310  -13.2719 H           1 MOL       0.0561
     61 H26       -41.2843  -44.7262  -12.3642 H           1 MOL       0.0562
     62 H27       -39.8181  -44.6642   -9.4719 H           1 MOL       0.1000
     63 H28       -41.4767  -42.9448  -13.9773 H           1 MOL       0.0600
     64 H29       -41.6539  -44.3424   -6.3158 H           1 MOL       0.0528
     65 H30       -40.3923  -45.3561   -7.0532 H           1 MOL       0.0528
     66 H31       -42.1197  -45.7170   -7.3391 H           1 MOL       0.0528
@<TRIPOS>BOND
     1     1    15   1
     2     1    16   1
     3    25     1  am
     4     2     4   1
     5    13     2   1
     6     3     4   2
     7     3     5   1
     8    14     3   1
     9     5     6  am
    10     6     7   1
    11     6     8   2
    12     7     9  ar
    13     7    12  ar
    14     9    10  ar
    15    10    24  ar
    16    12    11  ar
    17    11    24  ar
    18    13    14   2
    19    16    13   1
    20    15    14   1
    21    17    18   1
    22    17    22   1
    23    24    17   1
    24    18    19   1
    25    19    20   1
    26    21    20   1
    27    20    23   1
    28    22    21   1
    29    25    26   2
    30    32    25   1
    31    27    28  ar
    32    29    27  ar
    33    28    30  ar
    34    29    31  ar
    35    29    32   1
    36    30    33  ar
    37    31    33  ar
    38    32    35   1
    39    35    34   1
    40     2    36   1
    41     5    37   1
    42     9    38   1
    43    10    39   1
    44    11    40   1
    45    12    41   1
    46    15    42   1
    47    15    43   1
    48    16    44   1
    49    16    45   1
    50    18    46   1
    51    18    47   1
    52    19    48   1
    53    19    49   1
    54    20    50   1
    55    21    51   1
    56    21    52   1
    57    22    53   1
    58    22    54   1
    59    23    55   1
    60    23    56   1
    61    23    57   1
    62    27    58   1
    63    28    59   1
    64    30    60   1
    65    31    61   1
    66    32    62   1
    67    33    63   1
    68    34    64   1
    69    34    65   1
    70    34    66   1
@<TRIPOS>SUBSTRUCTURE
     1  MOL      3

