@<TRIPOS>MOLECULE
2v7a_ligand_087
    66    70
SMALL
GAST_HUCK
****
This file was generated by PARSER (from files_GN.cpp)

@<TRIPOS>ATOM
      1 N1        -46.1490  -42.4339   -0.7510 N.am        1 MOL      -0.2534
      2 N2        -48.8171  -43.6220    1.3580 N.pl3       1 MOL      -0.2433
      3 C3        -48.1607  -45.3463    0.2145 C.2         1 MOL       0.1027
      4 N4        -49.0177  -44.8893    1.1545 N.2         1 MOL      -0.2404
      5 N5        -48.2056  -46.6375   -0.1886 N.am        1 MOL      -0.2391
      6 C6        -47.5496  -47.2459   -1.1720 C.2         1 MOL       0.2181
      7 C7        -47.7875  -48.5921   -1.4159 C.ar        1 MOL       0.0412
      8 O8        -46.7668  -46.6532   -1.9050 O.2         1 MOL      -0.3816
      9 C9        -47.8403  -49.5154   -0.3467 C.ar        1 MOL      -0.0531
     10 C10       -48.0208  -50.8870   -0.5869 C.ar        1 MOL      -0.0381
     11 C11       -48.2335  -50.4449   -2.9613 C.ar        1 MOL      -0.0381
     12 C12       -47.9807  -49.0812   -2.7310 C.ar        1 MOL      -0.0531
     13 C13       -47.8236  -43.2013    0.5663 C.2         1 MOL       0.0786
     14 C14       -47.3699  -44.2612   -0.1601 C.2         1 MOL       0.0146
     15 C15       -46.2690  -43.8496   -1.0232 C.3         1 MOL       0.0514
     16 C16       -47.1050  -41.9826    0.2419 C.3         1 MOL       0.0897
     17 N17       -48.4175  -52.7212   -2.1145 N.pl3       1 MOL      -0.2958
     18 C18       -49.4505  -53.2136   -3.0075 C.3         1 MOL       0.0680
     19 C19       -48.8516  -54.1732   -4.0672 C.3         1 MOL      -0.0118
     20 N20       -48.0108  -55.2452   -3.4506 N.4         1 MOL       0.2359
     21 C21       -46.9634  -54.6541   -2.5592 C.3         1 MOL      -0.0118
     22 C22       -47.5728  -53.7169   -1.4744 C.3         1 MOL       0.0680
     23 C23       -48.7926  -56.3426   -2.8100 C.3         1 MOL      -0.0430
     24 C24       -48.2253  -51.3819   -1.8985 C.ar        1 MOL       0.0460
     25 C25       -45.2771  -41.5921   -1.3335 C.2         1 MOL       0.2222
     26 O26       -45.3394  -40.4048   -1.0314 O.2         1 MOL      -0.3907
     27 C27       -42.3080  -43.3235   -1.2751 C.ar        1 MOL      -0.0555
     28 C28       -41.0855  -43.4117   -0.5829 C.ar        1 MOL      -0.0680
     29 C29       -42.9088  -42.0649   -1.5387 C.ar        1 MOL       0.0044
     30 C31       -40.4633  -42.2427   -0.1070 C.ar        1 MOL      -0.0684
     31 C33       -42.2483  -40.9014   -1.0676 C.ar        1 MOL      -0.0555
     32 C20       -44.2002  -41.9261   -2.2789 C.3         1 MOL       0.1804
     33 C35       -41.0451  -40.9889   -0.3465 C.ar        1 MOL      -0.0680
     34 C36       -45.1967  -42.9265   -4.3218 C.3         1 MOL       0.0424
     35 O34       -44.4608  -43.0913   -3.0903 O.3         1 MOL      -0.3473
     36 H1        -49.3228  -43.0694    1.9781 H           1 MOL       0.2389
     37 H2        -48.8501  -47.1886    0.2869 H           1 MOL       0.2188
     38 H3        -47.7179  -49.2029    0.6209 H           1 MOL       0.0636
     39 H4        -48.0574  -51.5204    0.2161 H           1 MOL       0.0530
     40 H5        -48.3592  -50.7581   -3.9269 H           1 MOL       0.0530
     41 H6        -47.9621  -48.4457   -3.5318 H           1 MOL       0.0636
     42 H7        -45.3642  -44.3995   -0.7609 H           1 MOL       0.0576
     43 H8        -46.5505  -44.0379   -2.0577 H           1 MOL       0.0576
     44 H9        -47.7919  -41.2407   -0.1747 H           1 MOL       0.0708
     45 H10       -46.6041  -41.5861    1.1297 H           1 MOL       0.0708
     46 H11       -49.9950  -52.4141   -3.5177 H           1 MOL       0.0569
     47 H12       -50.1911  -53.7469   -2.4096 H           1 MOL       0.0569
     48 H13       -48.2284  -53.5899   -4.7505 H           1 MOL       0.0834
     49 H14       -49.6570  -54.6079   -4.6632 H           1 MOL       0.0834
     50 H15       -47.5225  -55.6980   -4.2230 H           1 MOL       0.2032
     51 H16       -46.2699  -54.0724   -3.1753 H           1 MOL       0.0834
     52 H17       -46.3709  -55.4404   -2.0828 H           1 MOL       0.0834
     53 H18       -48.1607  -54.2983   -0.7602 H           1 MOL       0.0569
     54 H19       -46.7387  -53.2699   -0.9198 H           1 MOL       0.0569
     55 H20       -49.4572  -56.8021   -3.5422 H           1 MOL       0.0778
     56 H21       -49.3940  -55.9905   -1.9715 H           1 MOL       0.0778
     57 H22       -48.1183  -57.1207   -2.4453 H           1 MOL       0.0778
     58 H23       -42.7636  -44.1917   -1.5630 H           1 MOL       0.0562
     59 H24       -40.6590  -44.3238   -0.4028 H           1 MOL       0.0600
     60 H25       -39.5918  -42.2987    0.4206 H           1 MOL       0.0561
     61 H26       -42.6472  -39.9762   -1.2424 H           1 MOL       0.0562
     62 H27       -44.0590  -41.0896   -2.9755 H           1 MOL       0.1000
     63 H28       -40.5840  -40.1437   -0.0055 H           1 MOL       0.0600
     64 H29       -45.2971  -43.9039   -4.8014 H           1 MOL       0.0528
     65 H30       -44.6951  -42.2468   -5.0179 H           1 MOL       0.0528
     66 H31       -46.1931  -42.5442   -4.1205 H           1 MOL       0.0528
@<TRIPOS>BOND
     1     1    15   1
     2     1    16   1
     3    25     1  am
     4     2     4   1
     5    13     2   1
     6     3     4   2
     7     3     5   1
     8    14     3   1
     9     5     6  am
    10     6     7   1
    11     6     8   2
    12     7     9  ar
    13     7    12  ar
    14     9    10  ar
    15    10    24  ar
    16    12    11  ar
    17    11    24  ar
    18    13    14   2
    19    16    13   1
    20    15    14   1
    21    17    18   1
    22    17    22   1
    23    24    17   1
    24    18    19   1
    25    19    20   1
    26    21    20   1
    27    20    23   1
    28    22    21   1
    29    25    26   2
    30    32    25   1
    31    27    28  ar
    32    29    27  ar
    33    28    30  ar
    34    29    31  ar
    35    29    32   1
    36    30    33  ar
    37    31    33  ar
    38    32    35   1
    39    35    34   1
    40     2    36   1
    41     5    37   1
    42     9    38   1
    43    10    39   1
    44    11    40   1
    45    12    41   1
    46    15    42   1
    47    15    43   1
    48    16    44   1
    49    16    45   1
    50    18    46   1
    51    18    47   1
    52    19    48   1
    53    19    49   1
    54    20    50   1
    55    21    51   1
    56    21    52   1
    57    22    53   1
    58    22    54   1
    59    23    55   1
    60    23    56   1
    61    23    57   1
    62    27    58   1
    63    28    59   1
    64    30    60   1
    65    31    61   1
    66    32    62   1
    67    33    63   1
    68    34    64   1
    69    34    65   1
    70    34    66   1
@<TRIPOS>SUBSTRUCTURE
     1  MOL      3

