@<TRIPOS>MOLECULE
2v7a_ligand_032
    66    70
SMALL
GAST_HUCK
****
This file was generated by PARSER (from files_GN.cpp)

@<TRIPOS>ATOM
      1 N1        -44.6540  -47.7884   -8.7923 N.am        1 MOL      -0.2534
      2 N2        -46.6423  -50.7558   -9.1849 N.pl3       1 MOL      -0.2433
      3 C3        -46.2842  -50.5556   -7.0518 C.2         1 MOL       0.1027
      4 N4        -46.8852  -51.2856   -8.0235 N.2         1 MOL      -0.2404
      5 N5        -46.3341  -50.7529   -5.7112 N.am        1 MOL      -0.2391
      6 C6        -46.9047  -51.7797   -5.0833 C.2         1 MOL       0.2181
      7 C7        -46.9443  -51.8533   -3.6922 C.ar        1 MOL       0.0412
      8 O8        -47.3857  -52.7109   -5.7197 O.2         1 MOL      -0.3816
      9 C9        -46.8055  -53.0988   -3.0338 C.ar        1 MOL      -0.0531
     10 C10       -46.8616  -53.1866   -1.6339 C.ar        1 MOL      -0.0381
     11 C11       -47.2896  -50.8072   -1.4967 C.ar        1 MOL      -0.0381
     12 C12       -47.1685  -50.7039   -2.8964 C.ar        1 MOL      -0.0531
     13 C13       -45.8835  -49.6673   -9.0168 C.2         1 MOL       0.0786
     14 C14       -45.6183  -49.5161   -7.6892 C.2         1 MOL       0.0146
     15 C15       -44.7773  -48.3460   -7.4580 C.3         1 MOL       0.0514
     16 C16       -45.3018  -48.6029   -9.8044 C.3         1 MOL       0.0897
     17 N17       -47.1940  -52.1450    0.5294 N.pl3       1 MOL      -0.2958
     18 C18       -46.2422  -52.9256    1.2909 C.3         1 MOL       0.0680
     19 C19       -46.9763  -54.0098    2.1248 C.3         1 MOL      -0.0118
     20 N20       -48.0872  -53.4382    2.9518 N.4         1 MOL       0.2359
     21 C21       -49.0053  -52.5924    2.1244 C.3         1 MOL      -0.0118
     22 C22       -48.2579  -51.5138    1.2858 C.3         1 MOL       0.0680
     23 C23       -47.6278  -52.7802    4.2105 C.3         1 MOL      -0.0430
     24 C24       -47.1195  -52.0475   -0.8358 C.ar        1 MOL       0.0460
     25 C25       -44.0717  -46.6187   -9.1141 C.2         1 MOL       0.2222
     26 O26       -44.3462  -46.1434  -10.2111 O.2         1 MOL      -0.3907
     27 C27       -40.7028  -45.4622   -8.1781 C.ar        1 MOL      -0.0555
     28 C28       -39.4997  -44.9834   -8.7340 C.ar        1 MOL      -0.0680
     29 C29       -41.9357  -45.3435   -8.8725 C.ar        1 MOL       0.0044
     30 C31       -39.4967  -44.3995  -10.0108 C.ar        1 MOL      -0.0684
     31 C33       -41.9081  -44.7052  -10.1412 C.ar        1 MOL      -0.0555
     32 C20       -43.2312  -45.7817   -8.2422 C.3         1 MOL       0.1804
     33 C35       -40.7016  -44.2701  -10.7203 C.ar        1 MOL      -0.0680
     34 C36       -44.8809  -44.6424   -6.8064 C.3         1 MOL       0.0424
     35 O34       -43.9201  -44.5649   -7.8723 O.3         1 MOL      -0.3473
     36 H1        -46.9732  -51.0845  -10.0375 H           1 MOL       0.2389
     37 H2        -45.8992  -50.0817   -5.1586 H           1 MOL       0.2188
     38 H3        -46.6483  -53.9581   -3.5667 H           1 MOL       0.0636
     39 H4        -46.7729  -54.1085   -1.2014 H           1 MOL       0.0530
     40 H5        -47.4505  -49.9533   -0.9550 H           1 MOL       0.0530
     41 H6        -47.2769  -49.7819   -3.3279 H           1 MOL       0.0636
     42 H7        -45.2911  -47.6685   -6.7770 H           1 MOL       0.0576
     43 H8        -43.8137  -48.6458   -7.0435 H           1 MOL       0.0576
     44 H9        -44.5813  -49.0096  -10.5196 H           1 MOL       0.0708
     45 H10       -46.0921  -48.0566  -10.3248 H           1 MOL       0.0708
     46 H11       -45.7074  -52.2572    1.9632 H           1 MOL       0.0569
     47 H12       -45.4783  -53.3936    0.6684 H           1 MOL       0.0569
     48 H13       -46.2524  -54.5370    2.7523 H           1 MOL       0.0834
     49 H14       -47.4003  -54.7505    1.4399 H           1 MOL       0.0834
     50 H15       -48.6435  -54.2412    3.2601 H           1 MOL       0.2032
     51 H16       -49.7581  -52.1112    2.7529 H           1 MOL       0.0834
     52 H17       -49.5452  -53.2525    1.4384 H           1 MOL       0.0834
     53 H18       -48.9936  -51.0226    0.6417 H           1 MOL       0.0569
     54 H19       -47.8374  -50.7533    1.9471 H           1 MOL       0.0569
     55 H20       -48.4858  -52.4865    4.8166 H           1 MOL       0.0778
     56 H21       -47.0252  -51.8930    4.0098 H           1 MOL       0.0778
     57 H22       -47.0336  -53.4762    4.8050 H           1 MOL       0.0778
     58 H23       -40.6724  -45.8759   -7.2433 H           1 MOL       0.0562
     59 H24       -38.6279  -45.0528   -8.2093 H           1 MOL       0.0600
     60 H25       -38.6237  -44.0578  -10.4139 H           1 MOL       0.0561
     61 H26       -42.7734  -44.5403  -10.6558 H           1 MOL       0.0562
     62 H27       -42.9909  -46.3461   -7.3367 H           1 MOL       0.1000
     63 H28       -40.7041  -43.8477  -11.6493 H           1 MOL       0.0600
     64 H29       -45.2922  -43.6473   -6.6368 H           1 MOL       0.0528
     65 H30       -44.4083  -44.9785   -5.8802 H           1 MOL       0.0528
     66 H31       -45.7010  -45.3118   -7.0677 H           1 MOL       0.0528
@<TRIPOS>BOND
     1     1    15   1
     2     1    16   1
     3    25     1  am
     4     2     4   1
     5    13     2   1
     6     3     4   2
     7     3     5   1
     8    14     3   1
     9     5     6  am
    10     6     7   1
    11     6     8   2
    12     7     9  ar
    13     7    12  ar
    14     9    10  ar
    15    10    24  ar
    16    12    11  ar
    17    11    24  ar
    18    13    14   2
    19    16    13   1
    20    15    14   1
    21    17    18   1
    22    17    22   1
    23    24    17   1
    24    18    19   1
    25    19    20   1
    26    21    20   1
    27    20    23   1
    28    22    21   1
    29    25    26   2
    30    32    25   1
    31    27    28  ar
    32    29    27  ar
    33    28    30  ar
    34    29    31  ar
    35    29    32   1
    36    30    33  ar
    37    31    33  ar
    38    32    35   1
    39    35    34   1
    40     2    36   1
    41     5    37   1
    42     9    38   1
    43    10    39   1
    44    11    40   1
    45    12    41   1
    46    15    42   1
    47    15    43   1
    48    16    44   1
    49    16    45   1
    50    18    46   1
    51    18    47   1
    52    19    48   1
    53    19    49   1
    54    20    50   1
    55    21    51   1
    56    21    52   1
    57    22    53   1
    58    22    54   1
    59    23    55   1
    60    23    56   1
    61    23    57   1
    62    27    58   1
    63    28    59   1
    64    30    60   1
    65    31    61   1
    66    32    62   1
    67    33    63   1
    68    34    64   1
    69    34    65   1
    70    34    66   1
@<TRIPOS>SUBSTRUCTURE
     1  MOL      3

