@<TRIPOS>MOLECULE
2v7a_ligand_059
    66    70
SMALL
GAST_HUCK
****
This file was generated by PARSER (from files_GN.cpp)

@<TRIPOS>ATOM
      1 N1        -50.1867  -42.6789   -0.3353 N.am        1 MOL      -0.2534
      2 N2        -52.2159  -43.6604   -3.1324 N.pl3       1 MOL      -0.2433
      3 C3        -50.9040  -45.3432   -2.7475 C.2         1 MOL       0.1027
      4 N4        -51.8916  -44.8524   -3.5271 N.2         1 MOL      -0.2404
      5 N5        -50.3874  -46.5722   -2.9820 N.am        1 MOL      -0.2391
      6 C6        -49.3629  -47.1994   -2.4116 C.2         1 MOL       0.2181
      7 C7        -49.0481  -48.5141   -2.7655 C.ar        1 MOL       0.0412
      8 O8        -48.6512  -46.6273   -1.5956 O.2         1 MOL      -0.3816
      9 C9        -50.0606  -49.4395   -3.1049 C.ar        1 MOL      -0.0531
     10 C10       -49.7532  -50.7825   -3.4027 C.ar        1 MOL      -0.0381
     11 C11       -47.3952  -50.3000   -3.1328 C.ar        1 MOL      -0.0381
     12 C12       -47.7089  -48.9730   -2.7741 C.ar        1 MOL      -0.0531
     13 C13       -51.4658  -43.3176   -2.0788 C.2         1 MOL       0.0786
     14 C14       -50.6392  -44.3629   -1.7964 C.2         1 MOL       0.0146
     15 C15       -49.7969  -44.0406   -0.6643 C.3         1 MOL       0.0514
     16 C16       -51.2682  -42.2053   -1.1722 C.3         1 MOL       0.0897
     17 N17       -48.1107  -52.5373   -3.7305 N.pl3       1 MOL      -0.2958
     18 C18       -48.8364  -53.6511   -3.1527 C.3         1 MOL       0.0680
     19 C19       -49.4601  -54.5331   -4.2572 C.3         1 MOL      -0.0118
     20 N20       -48.4397  -54.9181   -5.2842 N.4         1 MOL       0.2359
     21 C21       -47.7087  -53.7311   -5.8278 C.3         1 MOL      -0.0118
     22 C22       -47.0792  -52.8837   -4.6840 C.3         1 MOL       0.0680
     23 C23       -49.0205  -55.7793   -6.3496 C.3         1 MOL      -0.0430
     24 C24       -48.4128  -51.2368   -3.4307 C.ar        1 MOL       0.0460
     25 C25       -49.6298  -41.9108    0.6187 C.2         1 MOL       0.2222
     26 O26       -50.0960  -40.7914    0.7933 O.2         1 MOL      -0.3907
     27 C27       -46.7848  -42.4355   -0.2954 C.ar        1 MOL      -0.0555
     28 C28       -45.7822  -43.1364   -0.9880 C.ar        1 MOL      -0.0680
     29 C29       -47.3530  -42.9617    0.8979 C.ar        1 MOL       0.0044
     30 C31       -45.3060  -44.3566   -0.4826 C.ar        1 MOL      -0.0684
     31 C33       -46.8250  -44.1714    1.4106 C.ar        1 MOL      -0.0555
     32 C20       -48.5518  -42.3211    1.5346 C.3         1 MOL       0.1804
     33 C35       -45.8110  -44.8615    0.7247 C.ar        1 MOL      -0.0680
     34 C36       -47.3647  -40.1775    2.0581 C.3         1 MOL       0.0424
     35 O34       -48.1495  -41.3094    2.4932 O.3         1 MOL      -0.3473
     36 H1        -52.8962  -43.0966   -3.5355 H           1 MOL       0.2389
     37 H2        -50.8337  -47.0629   -3.6946 H           1 MOL       0.2188
     38 H3        -51.0454  -49.1591   -3.1192 H           1 MOL       0.0636
     39 H4        -50.5147  -51.4137   -3.6582 H           1 MOL       0.0530
     40 H5        -46.4167  -50.5976   -3.1024 H           1 MOL       0.0530
     41 H6        -46.9402  -48.3433   -2.5233 H           1 MOL       0.0636
     42 H7        -49.9766  -44.7236    0.1736 H           1 MOL       0.0576
     43 H8        -48.7711  -44.1174   -1.0182 H           1 MOL       0.0576
     44 H9        -50.9888  -41.3081   -1.7312 H           1 MOL       0.0708
     45 H10       -52.1764  -42.0243   -0.5909 H           1 MOL       0.0708
     46 H11       -49.6139  -53.3369   -2.4493 H           1 MOL       0.0569
     47 H12       -48.1276  -54.2589   -2.5785 H           1 MOL       0.0569
     48 H13       -50.2832  -53.9836   -4.7238 H           1 MOL       0.0834
     49 H14       -49.8714  -55.4316   -3.7894 H           1 MOL       0.0834
     50 H15       -47.7337  -55.4967   -4.8211 H           1 MOL       0.2032
     51 H16       -48.3885  -53.1005   -6.4069 H           1 MOL       0.0834
     52 H17       -46.9048  -54.0650   -6.4924 H           1 MOL       0.0834
     53 H18       -46.2951  -53.4626   -4.1900 H           1 MOL       0.0569
     54 H19       -46.6108  -52.0065   -5.1393 H           1 MOL       0.0569
     55 H20       -48.2434  -56.0922   -7.0509 H           1 MOL       0.0778
     56 H21       -49.8024  -55.2557   -6.9033 H           1 MOL       0.0778
     57 H22       -49.4468  -56.6826   -5.9101 H           1 MOL       0.0778
     58 H23       -47.1580  -41.5793   -0.7053 H           1 MOL       0.0562
     59 H24       -45.4231  -42.7731   -1.8743 H           1 MOL       0.0600
     60 H25       -44.5755  -44.8695   -0.9885 H           1 MOL       0.0561
     61 H26       -47.1993  -44.5768    2.2727 H           1 MOL       0.0562
     62 H27       -49.0346  -43.0761    2.1622 H           1 MOL       0.1000
     63 H28       -45.4494  -45.7421    1.1011 H           1 MOL       0.0600
     64 H29       -47.2931  -39.4751    2.8819 H           1 MOL       0.0528
     65 H30       -47.8227  -39.6732    1.2051 H           1 MOL       0.0528
     66 H31       -46.3538  -40.4914    1.7915 H           1 MOL       0.0528
@<TRIPOS>BOND
     1     1    15   1
     2     1    16   1
     3    25     1  am
     4     2     4   1
     5    13     2   1
     6     3     4   2
     7     3     5   1
     8    14     3   1
     9     5     6  am
    10     6     7   1
    11     6     8   2
    12     7     9  ar
    13     7    12  ar
    14     9    10  ar
    15    10    24  ar
    16    12    11  ar
    17    11    24  ar
    18    13    14   2
    19    16    13   1
    20    15    14   1
    21    17    18   1
    22    17    22   1
    23    24    17   1
    24    18    19   1
    25    19    20   1
    26    21    20   1
    27    20    23   1
    28    22    21   1
    29    25    26   2
    30    32    25   1
    31    27    28  ar
    32    29    27  ar
    33    28    30  ar
    34    29    31  ar
    35    29    32   1
    36    30    33  ar
    37    31    33  ar
    38    32    35   1
    39    35    34   1
    40     2    36   1
    41     5    37   1
    42     9    38   1
    43    10    39   1
    44    11    40   1
    45    12    41   1
    46    15    42   1
    47    15    43   1
    48    16    44   1
    49    16    45   1
    50    18    46   1
    51    18    47   1
    52    19    48   1
    53    19    49   1
    54    20    50   1
    55    21    51   1
    56    21    52   1
    57    22    53   1
    58    22    54   1
    59    23    55   1
    60    23    56   1
    61    23    57   1
    62    27    58   1
    63    28    59   1
    64    30    60   1
    65    31    61   1
    66    32    62   1
    67    33    63   1
    68    34    64   1
    69    34    65   1
    70    34    66   1
@<TRIPOS>SUBSTRUCTURE
     1  MOL      3

