@<TRIPOS>MOLECULE
2v7a_ligand_061
    66    70
SMALL
GAST_HUCK
****
This file was generated by PARSER (from files_GN.cpp)

@<TRIPOS>ATOM
      1 N1        -47.8038  -44.2459    2.7695 N.am        1 MOL      -0.2534
      2 N2        -48.9286  -47.3092    4.2869 N.pl3       1 MOL      -0.2433
      3 C3        -48.2978  -47.8384    2.2709 C.2         1 MOL       0.1027
      4 N4        -48.8309  -48.2855    3.4313 N.2         1 MOL      -0.2404
      5 N5        -48.1618  -48.6457    1.1890 N.am        1 MOL      -0.2391
      6 C6        -47.6610  -48.3815   -0.0198 C.2         1 MOL       0.2181
      7 C7        -47.6303  -49.3438   -1.0452 C.ar        1 MOL       0.0412
      8 O8        -47.1635  -47.2856   -0.2410 O.2         1 MOL      -0.3816
      9 C9        -46.7912  -49.1856   -2.1790 C.ar        1 MOL      -0.0531
     10 C10       -46.7720  -50.1316   -3.2178 C.ar        1 MOL      -0.0381
     11 C11       -48.4151  -51.4487   -2.0536 C.ar        1 MOL      -0.0381
     12 C12       -48.4415  -50.5030   -1.0107 C.ar        1 MOL      -0.0531
     13 C13       -48.4763  -46.1802    3.7286 C.2         1 MOL       0.0786
     14 C14       -48.0433  -46.4835    2.4743 C.2         1 MOL       0.0146
     15 C15       -47.5806  -45.2889    1.7979 C.3         1 MOL       0.0514
     16 C16       -48.3800  -44.7528    3.9992 C.3         1 MOL       0.0897
     17 N17       -47.5741  -52.2123   -4.2252 N.pl3       1 MOL      -0.2958
     18 C18       -47.7075  -53.6455   -4.0119 C.3         1 MOL       0.0680
     19 C19       -48.8968  -54.2124   -4.8297 C.3         1 MOL      -0.0118
     20 N20       -48.8023  -53.8636   -6.2837 N.4         1 MOL       0.2359
     21 C21       -48.5825  -52.3963   -6.4795 C.3         1 MOL      -0.0118
     22 C22       -47.4147  -51.8276   -5.6213 C.3         1 MOL       0.0680
     23 C23       -47.8465  -54.7130   -7.0542 C.3         1 MOL      -0.0430
     24 C24       -47.5879  -51.2919   -3.1954 C.ar        1 MOL       0.0460
     25 C25       -47.5369  -42.9429    2.5667 C.2         1 MOL       0.2222
     26 O26       -47.8652  -42.1475    3.4413 O.2         1 MOL      -0.3907
     27 C27       -48.7938  -42.6167   -0.1868 C.ar        1 MOL      -0.0555
     28 C28       -49.3768  -43.1543   -1.3494 C.ar        1 MOL      -0.0680
     29 C29       -47.4200  -42.8197    0.0929 C.ar        1 MOL       0.0044
     30 C31       -48.5908  -43.8778   -2.2649 C.ar        1 MOL      -0.0684
     31 C33       -46.6331  -43.5127   -0.8614 C.ar        1 MOL      -0.0555
     32 C20       -46.8249  -42.3861    1.3997 C.3         1 MOL       0.1804
     33 C35       -47.2163  -44.0521   -2.0222 C.ar        1 MOL      -0.0680
     34 C36       -46.1172  -40.2404    0.3885 C.3         1 MOL       0.0424
     35 O34       -46.7641  -40.9354    1.4717 O.3         1 MOL      -0.3473
     36 H1        -49.3072  -47.3817    5.1783 H           1 MOL       0.2389
     37 H2        -48.4785  -49.5504    1.3310 H           1 MOL       0.2188
     38 H3        -46.1652  -48.3772   -2.2564 H           1 MOL       0.0636
     39 H4        -46.1029  -49.9782   -3.9726 H           1 MOL       0.0530
     40 H5        -49.0722  -52.2286   -1.9891 H           1 MOL       0.0530
     41 H6        -49.0943  -50.6646   -0.2431 H           1 MOL       0.0636
     42 H7        -46.5249  -45.3802    1.5334 H           1 MOL       0.0576
     43 H8        -48.2054  -45.1466    0.9171 H           1 MOL       0.0576
     44 H9        -49.3769  -44.3404    4.1752 H           1 MOL       0.0708
     45 H10       -47.7337  -44.5694    4.8600 H           1 MOL       0.0708
     46 H11       -47.8233  -53.9393   -2.9686 H           1 MOL       0.0569
     47 H12       -46.7883  -54.1292   -4.3478 H           1 MOL       0.0569
     48 H13       -49.8284  -53.7957   -4.4316 H           1 MOL       0.0834
     49 H14       -48.9532  -55.2974   -4.6953 H           1 MOL       0.0834
     50 H15       -49.7239  -54.0671   -6.6818 H           1 MOL       0.2032
     51 H16       -49.5031  -51.8744   -6.2017 H           1 MOL       0.0834
     52 H17       -48.3993  -52.1693   -7.5343 H           1 MOL       0.0834
     53 H18       -46.4601  -52.2086   -5.9939 H           1 MOL       0.0569
     54 H19       -47.4201  -50.7479   -5.7801 H           1 MOL       0.0569
     55 H20       -48.0761  -55.7708   -6.9111 H           1 MOL       0.0778
     56 H21       -46.8117  -54.5381   -6.7538 H           1 MOL       0.0778
     57 H22       -47.9367  -54.4976   -8.1209 H           1 MOL       0.0778
     58 H23       -49.3864  -42.1179    0.4787 H           1 MOL       0.0562
     59 H24       -50.3738  -43.0195   -1.5327 H           1 MOL       0.0600
     60 H25       -49.0150  -44.2752   -3.1055 H           1 MOL       0.0561
     61 H26       -45.6374  -43.6793   -0.6921 H           1 MOL       0.0562
     62 H27       -45.7982  -42.7622    1.4900 H           1 MOL       0.1000
     63 H28       -46.6405  -44.5770   -2.6876 H           1 MOL       0.0600
     64 H29       -46.0317  -39.1891    0.6649 H           1 MOL       0.0528
     65 H30       -46.7109  -40.3089   -0.5252 H           1 MOL       0.0528
     66 H31       -45.1138  -40.6335    0.2020 H           1 MOL       0.0528
@<TRIPOS>BOND
     1     1    15   1
     2     1    16   1
     3    25     1  am
     4     2     4   1
     5    13     2   1
     6     3     4   2
     7     3     5   1
     8    14     3   1
     9     5     6  am
    10     6     7   1
    11     6     8   2
    12     7     9  ar
    13     7    12  ar
    14     9    10  ar
    15    10    24  ar
    16    12    11  ar
    17    11    24  ar
    18    13    14   2
    19    16    13   1
    20    15    14   1
    21    17    18   1
    22    17    22   1
    23    24    17   1
    24    18    19   1
    25    19    20   1
    26    21    20   1
    27    20    23   1
    28    22    21   1
    29    25    26   2
    30    32    25   1
    31    27    28  ar
    32    29    27  ar
    33    28    30  ar
    34    29    31  ar
    35    29    32   1
    36    30    33  ar
    37    31    33  ar
    38    32    35   1
    39    35    34   1
    40     2    36   1
    41     5    37   1
    42     9    38   1
    43    10    39   1
    44    11    40   1
    45    12    41   1
    46    15    42   1
    47    15    43   1
    48    16    44   1
    49    16    45   1
    50    18    46   1
    51    18    47   1
    52    19    48   1
    53    19    49   1
    54    20    50   1
    55    21    51   1
    56    21    52   1
    57    22    53   1
    58    22    54   1
    59    23    55   1
    60    23    56   1
    61    23    57   1
    62    27    58   1
    63    28    59   1
    64    30    60   1
    65    31    61   1
    66    32    62   1
    67    33    63   1
    68    34    64   1
    69    34    65   1
    70    34    66   1
@<TRIPOS>SUBSTRUCTURE
     1  MOL      3

