@<TRIPOS>MOLECULE
2v7a_ligand_030
    66    70
SMALL
GAST_HUCK
****
This file was generated by PARSER (from files_GN.cpp)

@<TRIPOS>ATOM
      1 N1        -44.4946  -47.9163   -9.2454 N.am        1 MOL      -0.2534
      2 N2        -46.2416  -51.0245   -9.6360 N.pl3       1 MOL      -0.2433
      3 C3        -46.1443  -50.6650   -7.4974 C.2         1 MOL       0.1027
      4 N4        -46.5489  -51.5136   -8.4722 N.2         1 MOL      -0.2404
      5 N5        -46.2492  -50.8137   -6.1536 N.am        1 MOL      -0.2391
      6 C6        -46.6747  -51.8937   -5.4976 C.2         1 MOL       0.2181
      7 C7        -46.7655  -51.9105   -4.1018 C.ar        1 MOL       0.0412
      8 O8        -46.9541  -52.9198   -6.1097 O.2         1 MOL      -0.3816
      9 C9        -46.5471  -53.1050   -3.3709 C.ar        1 MOL      -0.0531
     10 C10       -46.6672  -53.1383   -1.9711 C.ar        1 MOL      -0.0381
     11 C11       -47.2895  -50.8022   -1.9689 C.ar        1 MOL      -0.0381
     12 C12       -47.1173  -50.7532   -3.3664 C.ar        1 MOL      -0.0531
     13 C13       -45.6195  -49.8508   -9.4744 C.2         1 MOL       0.0786
     14 C14       -45.5498  -49.5841   -8.1398 C.2         1 MOL       0.0146
     15 C15       -44.8527  -48.3292   -7.9027 C.3         1 MOL       0.0514
     16 C16       -44.9704  -48.8249  -10.2662 C.3         1 MOL       0.0897
     17 N17       -47.2313  -52.0368    0.1290 N.pl3       1 MOL      -0.2958
     18 C18       -46.3491  -52.7956    0.9944 C.3         1 MOL       0.0680
     19 C19       -47.1544  -53.8394    1.8069 C.3         1 MOL      -0.0118
     20 N20       -48.3039  -53.2237    2.5427 N.4         1 MOL       0.2359
     21 C21       -49.1514  -52.3905    1.6309 C.3         1 MOL      -0.0118
     22 C22       -48.3346  -51.3635    0.7940 C.3         1 MOL       0.0680
     23 C23       -47.9138  -52.5282    3.8040 C.3         1 MOL      -0.0430
     24 C24       -47.0648  -51.9939   -1.2348 C.ar        1 MOL       0.0460
     25 C25       -43.7737  -46.8276   -9.5537 C.2         1 MOL       0.2222
     26 O26       -43.5211  -46.6000  -10.7328 O.2         1 MOL      -0.3907
     27 C27       -45.3019  -44.4093   -8.6523 C.ar        1 MOL      -0.0555
     28 C28       -46.3033  -43.6402   -8.0321 C.ar        1 MOL      -0.0680
     29 C29       -44.3168  -45.0896   -7.8924 C.ar        1 MOL       0.0044
     30 C31       -46.3352  -43.5273   -6.6317 C.ar        1 MOL      -0.0684
     31 C33       -44.3796  -44.9717   -6.4797 C.ar        1 MOL      -0.0555
     32 C20       -43.2368  -45.8563   -8.5916 C.3         1 MOL       0.1804
     33 C35       -45.3721  -44.1937   -5.8550 C.ar        1 MOL      -0.0680
     34 C36       -41.1072  -47.0501   -8.1603 C.3         1 MOL       0.0424
     35 O34       -42.3371  -46.4985   -7.6569 O.3         1 MOL      -0.3473
     36 H1        -46.4129  -51.4583  -10.4878 H           1 MOL       0.2389
     37 H2        -45.9495  -50.0640   -5.6122 H           1 MOL       0.2188
     38 H3        -46.2925  -53.9723   -3.8524 H           1 MOL       0.0636
     39 H4        -46.5344  -54.0346   -1.4979 H           1 MOL       0.0530
     40 H5        -47.5333  -49.9353   -1.4811 H           1 MOL       0.0530
     41 H6        -47.2911  -49.8634   -3.8454 H           1 MOL       0.0636
     42 H7        -45.5249  -47.6192   -7.4204 H           1 MOL       0.0576
     43 H8        -43.9757  -48.5104   -7.2811 H           1 MOL       0.0576
     44 H9        -44.1467  -49.2628  -10.8361 H           1 MOL       0.0708
     45 H10       -45.6868  -48.3439  -10.9363 H           1 MOL       0.0708
     46 H11       -45.8676  -52.1013    1.6841 H           1 MOL       0.0569
     47 H12       -45.5385  -53.2931    0.4567 H           1 MOL       0.0569
     48 H13       -46.4842  -54.3608    2.4970 H           1 MOL       0.0834
     49 H14       -47.5457  -54.5930    1.1170 H           1 MOL       0.0834
     50 H15       -48.8905  -54.0059    2.8418 H           1 MOL       0.2032
     51 H16       -49.9287  -51.8719    2.1963 H           1 MOL       0.0834
     52 H17       -49.6638  -53.0668    0.9416 H           1 MOL       0.0834
     53 H18       -49.0307  -50.8925    0.0927 H           1 MOL       0.0569
     54 H19       -47.9462  -50.5771    1.4448 H           1 MOL       0.0569
     55 H20       -48.8065  -52.2102    4.3457 H           1 MOL       0.0778
     56 H21       -47.2931  -51.6509    3.6156 H           1 MOL       0.0778
     57 H22       -47.3623  -53.2073    4.4578 H           1 MOL       0.0778
     58 H23       -45.2918  -44.4561   -9.6733 H           1 MOL       0.0562
     59 H24       -46.9992  -43.1509   -8.5997 H           1 MOL       0.0600
     60 H25       -47.0504  -42.9534   -6.1778 H           1 MOL       0.0561
     61 H26       -43.6921  -45.4371   -5.8869 H           1 MOL       0.0562
     62 H27       -42.6550  -45.0885   -9.1163 H           1 MOL       0.1000
     63 H28       -45.3881  -44.1064   -4.8354 H           1 MOL       0.0600
     64 H29       -40.5044  -47.3778   -7.3117 H           1 MOL       0.0528
     65 H30       -40.5389  -46.3047   -8.7223 H           1 MOL       0.0528
     66 H31       -41.3016  -47.9177   -8.7948 H           1 MOL       0.0528
@<TRIPOS>BOND
     1     1    15   1
     2     1    16   1
     3    25     1  am
     4     2     4   1
     5    13     2   1
     6     3     4   2
     7     3     5   1
     8    14     3   1
     9     5     6  am
    10     6     7   1
    11     6     8   2
    12     7     9  ar
    13     7    12  ar
    14     9    10  ar
    15    10    24  ar
    16    12    11  ar
    17    11    24  ar
    18    13    14   2
    19    16    13   1
    20    15    14   1
    21    17    18   1
    22    17    22   1
    23    24    17   1
    24    18    19   1
    25    19    20   1
    26    21    20   1
    27    20    23   1
    28    22    21   1
    29    25    26   2
    30    32    25   1
    31    27    28  ar
    32    29    27  ar
    33    28    30  ar
    34    29    31  ar
    35    29    32   1
    36    30    33  ar
    37    31    33  ar
    38    32    35   1
    39    35    34   1
    40     2    36   1
    41     5    37   1
    42     9    38   1
    43    10    39   1
    44    11    40   1
    45    12    41   1
    46    15    42   1
    47    15    43   1
    48    16    44   1
    49    16    45   1
    50    18    46   1
    51    18    47   1
    52    19    48   1
    53    19    49   1
    54    20    50   1
    55    21    51   1
    56    21    52   1
    57    22    53   1
    58    22    54   1
    59    23    55   1
    60    23    56   1
    61    23    57   1
    62    27    58   1
    63    28    59   1
    64    30    60   1
    65    31    61   1
    66    32    62   1
    67    33    63   1
    68    34    64   1
    69    34    65   1
    70    34    66   1
@<TRIPOS>SUBSTRUCTURE
     1  MOL      3

