@<TRIPOS>MOLECULE
2v7a_ligand_069
    66    70
SMALL
GAST_HUCK
****
This file was generated by PARSER (from files_GN.cpp)

@<TRIPOS>ATOM
      1 N1        -43.9799  -46.3182   -6.2835 N.am        1 MOL      -0.2534
      2 N2        -41.8870  -49.2102   -5.9074 N.pl3       1 MOL      -0.2433
      3 C3        -43.9204  -49.9289   -5.6493 C.2         1 MOL       0.1027
      4 N4        -42.6110  -50.2655   -5.6859 N.2         1 MOL      -0.2404
      5 N5        -44.8583  -50.8832   -5.4457 N.am        1 MOL      -0.2391
      6 C6        -46.1841  -50.8002   -5.4689 C.2         1 MOL       0.2181
      7 C7        -46.9714  -51.9230   -5.2040 C.ar        1 MOL       0.0412
      8 O8        -46.7406  -49.7513   -5.7751 O.2         1 MOL      -0.3816
      9 C9        -46.5493  -52.9139   -4.2865 C.ar        1 MOL      -0.0531
     10 C10       -47.3581  -54.0251   -3.9910 C.ar        1 MOL      -0.0381
     11 C11       -49.0146  -53.2455   -5.5484 C.ar        1 MOL      -0.0381
     12 C12       -48.2266  -52.1120   -5.8247 C.ar        1 MOL      -0.0531
     13 C13       -42.6912  -48.1471   -6.0206 C.2         1 MOL       0.0786
     14 C14       -43.9830  -48.5499   -5.8551 C.2         1 MOL       0.0146
     15 C15       -44.8827  -47.3998   -5.9555 C.3         1 MOL       0.0514
     16 C16       -42.5905  -46.7246   -6.2894 C.3         1 MOL       0.0897
     17 N17       -49.4116  -55.3416   -4.3154 N.pl3       1 MOL      -0.2958
     18 C18       -48.9111  -56.5436   -3.6538 C.3         1 MOL       0.0680
     19 C19       -49.1596  -57.7946   -4.5427 C.3         1 MOL      -0.0118
     20 N20       -50.5781  -57.9278   -5.0015 N.4         1 MOL       0.2359
     21 C21       -51.0845  -56.6428   -5.5820 C.3         1 MOL      -0.0118
     22 C22       -50.8300  -55.4314   -4.6451 C.3         1 MOL       0.0680
     23 C23       -51.4840  -58.5349   -3.9822 C.3         1 MOL      -0.0430
     24 C24       -48.6213  -54.2424   -4.6106 C.ar        1 MOL       0.0460
     25 C25       -44.3623  -45.0693   -6.6021 C.2         1 MOL       0.2222
     26 O26       -43.4842  -44.2620   -6.8921 O.2         1 MOL      -0.3907
     27 C27       -45.5588  -42.4273   -5.5078 C.ar        1 MOL      -0.0555
     28 C28       -45.6041  -41.0217   -5.4553 C.ar        1 MOL      -0.0680
     29 C29       -45.9316  -43.1330   -6.6769 C.ar        1 MOL       0.0044
     30 C31       -46.0407  -40.2922   -6.5751 C.ar        1 MOL      -0.0684
     31 C33       -46.3853  -42.3762   -7.7888 C.ar        1 MOL      -0.0555
     32 C20       -45.7647  -44.6237   -6.7244 C.3         1 MOL       0.1804
     33 C35       -46.4408  -40.9728   -7.7368 C.ar        1 MOL      -0.0680
     34 C36       -45.9034  -45.8772   -8.9160 C.3         1 MOL       0.0424
     35 O34       -46.5301  -45.1932   -7.8111 O.3         1 MOL      -0.3473
     36 H1        -40.9202  -49.1997   -5.9910 H           1 MOL       0.2389
     37 H2        -44.4995  -51.7706   -5.2859 H           1 MOL       0.2188
     38 H3        -45.6630  -52.8162   -3.7851 H           1 MOL       0.0636
     39 H4        -47.0170  -54.6450   -3.2552 H           1 MOL       0.0530
     40 H5        -49.8698  -53.3462   -6.0965 H           1 MOL       0.0530
     41 H6        -48.5726  -51.4391   -6.5156 H           1 MOL       0.0636
     42 H7        -45.6135  -47.5588   -6.7521 H           1 MOL       0.0576
     43 H8        -45.3758  -47.2269   -4.9918 H           1 MOL       0.0576
     44 H9        -42.0155  -46.2248   -5.5065 H           1 MOL       0.0708
     45 H10       -42.1272  -46.5733   -7.2669 H           1 MOL       0.0708
     46 H11       -49.4193  -56.6668   -2.6916 H           1 MOL       0.0569
     47 H12       -47.8417  -56.5329   -3.4476 H           1 MOL       0.0569
     48 H13       -48.8389  -58.6914   -4.0054 H           1 MOL       0.0834
     49 H14       -48.5210  -57.7171   -5.4295 H           1 MOL       0.0834
     50 H15       -50.5615  -58.5972   -5.7744 H           1 MOL       0.2032
     51 H16       -52.1516  -56.7147   -5.8089 H           1 MOL       0.0834
     52 H17       -50.5704  -56.4656   -6.5316 H           1 MOL       0.0834
     53 H18       -51.2533  -54.5360   -5.1011 H           1 MOL       0.0569
     54 H19       -51.3970  -55.5696   -3.7202 H           1 MOL       0.0569
     55 H20       -52.4803  -58.6801   -4.4019 H           1 MOL       0.0778
     56 H21       -51.5708  -57.9139   -3.0895 H           1 MOL       0.0778
     57 H22       -51.1113  -59.5155   -3.6854 H           1 MOL       0.0778
     58 H23       -45.2307  -42.9343   -4.6814 H           1 MOL       0.0562
     59 H24       -45.3160  -40.5264   -4.6058 H           1 MOL       0.0600
     60 H25       -46.0632  -39.2705   -6.5441 H           1 MOL       0.0561
     61 H26       -46.6581  -42.8368   -8.6586 H           1 MOL       0.0562
     62 H27       -46.2895  -44.9861   -5.8312 H           1 MOL       0.1000
     63 H28       -46.7613  -40.4408   -8.5539 H           1 MOL       0.0600
     64 H29       -46.6688  -46.1115   -9.6511 H           1 MOL       0.0528
     65 H30       -45.4525  -46.8168   -8.5726 H           1 MOL       0.0528
     66 H31       -45.1359  -45.2461   -9.3831 H           1 MOL       0.0528
@<TRIPOS>BOND
     1     1    15   1
     2     1    16   1
     3    25     1  am
     4     2     4   1
     5    13     2   1
     6     3     4   2
     7     3     5   1
     8    14     3   1
     9     5     6  am
    10     6     7   1
    11     6     8   2
    12     7     9  ar
    13     7    12  ar
    14     9    10  ar
    15    10    24  ar
    16    12    11  ar
    17    11    24  ar
    18    13    14   2
    19    16    13   1
    20    15    14   1
    21    17    18   1
    22    17    22   1
    23    24    17   1
    24    18    19   1
    25    19    20   1
    26    21    20   1
    27    20    23   1
    28    22    21   1
    29    25    26   2
    30    32    25   1
    31    27    28  ar
    32    29    27  ar
    33    28    30  ar
    34    29    31  ar
    35    29    32   1
    36    30    33  ar
    37    31    33  ar
    38    32    35   1
    39    35    34   1
    40     2    36   1
    41     5    37   1
    42     9    38   1
    43    10    39   1
    44    11    40   1
    45    12    41   1
    46    15    42   1
    47    15    43   1
    48    16    44   1
    49    16    45   1
    50    18    46   1
    51    18    47   1
    52    19    48   1
    53    19    49   1
    54    20    50   1
    55    21    51   1
    56    21    52   1
    57    22    53   1
    58    22    54   1
    59    23    55   1
    60    23    56   1
    61    23    57   1
    62    27    58   1
    63    28    59   1
    64    30    60   1
    65    31    61   1
    66    32    62   1
    67    33    63   1
    68    34    64   1
    69    34    65   1
    70    34    66   1
@<TRIPOS>SUBSTRUCTURE
     1  MOL      3

