@<TRIPOS>MOLECULE
2v7a_ligand_071
    66    70
SMALL
GAST_HUCK
****
This file was generated by PARSER (from files_GN.cpp)

@<TRIPOS>ATOM
      1 N1        -43.3908  -48.8951  -10.9999 N.am        1 MOL      -0.2534
      2 N2        -43.3490  -51.5080  -13.4511 N.pl3       1 MOL      -0.2433
      3 C3        -44.4651  -52.3097  -11.7709 C.2         1 MOL       0.1027
      4 N4        -43.9635  -52.5593  -13.0063 N.2         1 MOL      -0.2404
      5 N5        -45.1775  -53.1435  -10.9827 N.am        1 MOL      -0.2391
      6 C6        -45.6045  -54.3622  -11.3044 C.2         1 MOL       0.2181
      7 C7        -46.3668  -55.1013  -10.4090 C.ar        1 MOL       0.0412
      8 O8        -45.3924  -54.8383  -12.4143 O.2         1 MOL      -0.3816
      9 C9        -47.4762  -55.8555  -10.8580 C.ar        1 MOL      -0.0531
     10 C10       -48.2586  -56.5984   -9.9583 C.ar        1 MOL      -0.0381
     11 C11       -46.8118  -55.9289   -8.1452 C.ar        1 MOL      -0.0381
     12 C12       -46.0490  -55.1464   -9.0317 C.ar        1 MOL      -0.0531
     13 C13       -43.4493  -50.5219  -12.5490 C.2         1 MOL       0.0786
     14 C14       -44.1042  -51.0043  -11.4556 C.2         1 MOL       0.0146
     15 C15       -44.1469  -49.9860  -10.4093 C.3         1 MOL       0.0514
     16 C16       -43.0516  -49.1375  -12.3904 C.3         1 MOL       0.0897
     17 N17       -48.6851  -57.4417   -7.7082 N.pl3       1 MOL      -0.2958
     18 C18       -50.1392  -57.4769   -7.7175 C.3         1 MOL       0.0680
     19 C19       -50.6353  -58.9138   -8.0127 C.3         1 MOL      -0.0118
     20 N20       -50.0405  -59.9180   -7.0755 N.4         1 MOL       0.2359
     21 C21       -48.5494  -59.7974   -7.0079 C.3         1 MOL      -0.0118
     22 C22       -48.0593  -58.3446   -6.7566 C.3         1 MOL       0.0680
     23 C23       -50.6945  -59.9523   -5.7324 C.3         1 MOL      -0.0430
     24 C24       -47.9464  -56.6718   -8.5758 C.ar        1 MOL       0.0460
     25 C25       -42.9929  -47.8183  -10.2976 C.2         1 MOL       0.2222
     26 O26       -43.4190  -47.6817   -9.1547 O.2         1 MOL      -0.3907
     27 C27       -39.6334  -46.3416  -11.4158 C.ar        1 MOL      -0.0555
     28 C28       -38.3475  -46.7570  -11.8240 C.ar        1 MOL      -0.0680
     29 C29       -40.6529  -47.2822  -11.0970 C.ar        1 MOL       0.0044
     30 C31       -38.0468  -48.1273  -11.9269 C.ar        1 MOL      -0.0684
     31 C33       -40.2787  -48.6519  -11.1082 C.ar        1 MOL      -0.0555
     32 C20       -42.0467  -46.7979  -10.7774 C.3         1 MOL       0.1804
     33 C35       -39.0042  -49.0733  -11.5286 C.ar        1 MOL      -0.0680
     34 C36       -42.2317  -44.9382  -12.4389 C.3         1 MOL       0.0424
     35 O34       -42.7397  -46.1589  -11.8746 O.3         1 MOL      -0.3473
     36 H1        -42.8955  -51.4379  -14.3063 H           1 MOL       0.2389
     37 H2        -45.4316  -52.7991  -10.1111 H           1 MOL       0.2188
     38 H3        -47.7361  -55.8633  -11.8482 H           1 MOL       0.0636
     39 H4        -49.0341  -57.1428  -10.3489 H           1 MOL       0.0530
     40 H5        -46.5606  -55.9045   -7.1540 H           1 MOL       0.0530
     41 H6        -45.2416  -54.6356   -8.6622 H           1 MOL       0.0636
     42 H7        -45.1761  -49.6931  -10.1801 H           1 MOL       0.0576
     43 H8        -43.6564  -50.3818   -9.5134 H           1 MOL       0.0576
     44 H9        -41.9851  -49.0383  -12.6184 H           1 MOL       0.0708
     45 H10       -43.6434  -48.4992  -13.0592 H           1 MOL       0.0708
     46 H11       -50.5951  -56.7844   -8.4313 H           1 MOL       0.0569
     47 H12       -50.5018  -57.1634   -6.7345 H           1 MOL       0.0569
     48 H13       -50.3482  -59.1797   -9.0305 H           1 MOL       0.0834
     49 H14       -51.7277  -58.9437   -7.9719 H           1 MOL       0.0834
     50 H15       -50.2300  -60.8365   -7.4856 H           1 MOL       0.2032
     51 H16       -48.1455  -60.1394   -7.9616 H           1 MOL       0.0834
     52 H17       -48.1416  -60.4560   -6.2375 H           1 MOL       0.0834
     53 H18       -48.3020  -58.0342   -5.7387 H           1 MOL       0.0569
     54 H19       -46.9725  -58.3744   -6.8438 H           1 MOL       0.0569
     55 H20       -51.7691  -60.1282   -5.8399 H           1 MOL       0.0778
     56 H21       -50.5493  -59.0228   -5.1806 H           1 MOL       0.0778
     57 H22       -50.2891  -60.7746   -5.1360 H           1 MOL       0.0778
     58 H23       -39.8044  -45.3375  -11.3402 H           1 MOL       0.0562
     59 H24       -37.6354  -46.0701  -12.0779 H           1 MOL       0.0600
     60 H25       -37.1220  -48.4287  -12.2489 H           1 MOL       0.0561
     61 H26       -40.9226  -49.3810  -10.8103 H           1 MOL       0.0562
     62 H27       -41.9231  -46.0581   -9.9770 H           1 MOL       0.1000
     63 H28       -38.7787  -50.0758  -11.5568 H           1 MOL       0.0600
     64 H29       -43.0321  -44.4762  -13.0197 H           1 MOL       0.0528
     65 H30       -41.4062  -45.1455  -13.1203 H           1 MOL       0.0528
     66 H31       -41.9077  -44.2392  -11.6616 H           1 MOL       0.0528
@<TRIPOS>BOND
     1     1    15   1
     2     1    16   1
     3    25     1  am
     4     2     4   1
     5    13     2   1
     6     3     4   2
     7     3     5   1
     8    14     3   1
     9     5     6  am
    10     6     7   1
    11     6     8   2
    12     7     9  ar
    13     7    12  ar
    14     9    10  ar
    15    10    24  ar
    16    12    11  ar
    17    11    24  ar
    18    13    14   2
    19    16    13   1
    20    15    14   1
    21    17    18   1
    22    17    22   1
    23    24    17   1
    24    18    19   1
    25    19    20   1
    26    21    20   1
    27    20    23   1
    28    22    21   1
    29    25    26   2
    30    32    25   1
    31    27    28  ar
    32    29    27  ar
    33    28    30  ar
    34    29    31  ar
    35    29    32   1
    36    30    33  ar
    37    31    33  ar
    38    32    35   1
    39    35    34   1
    40     2    36   1
    41     5    37   1
    42     9    38   1
    43    10    39   1
    44    11    40   1
    45    12    41   1
    46    15    42   1
    47    15    43   1
    48    16    44   1
    49    16    45   1
    50    18    46   1
    51    18    47   1
    52    19    48   1
    53    19    49   1
    54    20    50   1
    55    21    51   1
    56    21    52   1
    57    22    53   1
    58    22    54   1
    59    23    55   1
    60    23    56   1
    61    23    57   1
    62    27    58   1
    63    28    59   1
    64    30    60   1
    65    31    61   1
    66    32    62   1
    67    33    63   1
    68    34    64   1
    69    34    65   1
    70    34    66   1
@<TRIPOS>SUBSTRUCTURE
     1  MOL      3

