@<TRIPOS>MOLECULE
2v7a_ligand_078
    66    70
SMALL
GAST_HUCK
****
This file was generated by PARSER (from files_GN.cpp)

@<TRIPOS>ATOM
      1 N1        -43.5380  -46.3941   -6.1874 N.am        1 MOL      -0.2534
      2 N2        -41.4783  -49.3350   -5.8979 N.pl3       1 MOL      -0.2433
      3 C3        -43.5336  -50.0349   -5.7574 C.2         1 MOL       0.1027
      4 N4        -42.2303  -50.3858   -5.7245 N.2         1 MOL      -0.2404
      5 N5        -44.5235  -50.9436   -5.5564 N.am        1 MOL      -0.2391
      6 C6        -45.8441  -50.8061   -5.6408 C.2         1 MOL       0.2181
      7 C7        -46.6889  -51.8877   -5.3786 C.ar        1 MOL       0.0412
      8 O8        -46.3429  -49.7564   -6.0186 O.2         1 MOL      -0.3816
      9 C9        -46.3962  -52.8344   -4.3796 C.ar        1 MOL      -0.0531
     10 C10       -47.2695  -53.9081   -4.1079 C.ar        1 MOL      -0.0381
     11 C11       -48.7354  -53.1638   -5.8539 C.ar        1 MOL      -0.0381
     12 C12       -47.8926  -52.0660   -6.1031 C.ar        1 MOL      -0.0531
     13 C13       -42.2490  -48.2525   -6.0349 C.2         1 MOL       0.0786
     14 C14       -43.5487  -48.6563   -5.9689 C.2         1 MOL       0.0146
     15 C15       -44.4384  -47.5143   -6.0187 C.3         1 MOL       0.0514
     16 C16       -42.1471  -46.8065   -6.1893 C.3         1 MOL       0.0897
     17 N17       -49.3152  -55.2144   -4.5954 N.pl3       1 MOL      -0.2958
     18 C18       -48.9194  -56.4090   -3.8504 C.3         1 MOL       0.0680
     19 C19       -49.0904  -57.6878   -4.7225 C.3         1 MOL      -0.0118
     20 N20       -50.4443  -57.8117   -5.3446 N.4         1 MOL       0.2359
     21 C21       -50.8670  -56.5349   -5.9978 C.3         1 MOL      -0.0118
     22 C22       -50.6967  -55.3055   -5.0664 C.3         1 MOL       0.0680
     23 C23       -51.4735  -58.3981   -4.4386 C.3         1 MOL      -0.0430
     24 C24       -48.4698  -54.1331   -4.8447 C.ar        1 MOL       0.0460
     25 C25       -43.9224  -45.1179   -6.3404 C.2         1 MOL       0.2222
     26 O26       -43.0417  -44.2825   -6.5566 O.2         1 MOL      -0.3907
     27 C27       -45.7031  -43.7734   -4.0029 C.ar        1 MOL      -0.0555
     28 C28       -46.2674  -43.8988   -2.7151 C.ar        1 MOL      -0.0680
     29 C29       -45.9638  -44.7317   -5.0095 C.ar        1 MOL       0.0044
     30 C31       -47.1045  -44.9880   -2.4174 C.ar        1 MOL      -0.0684
     31 C33       -46.8666  -45.7808   -4.7082 C.ar        1 MOL      -0.0555
     32 C20       -45.3108  -44.6310   -6.3616 C.3         1 MOL       0.1804
     33 C35       -47.4014  -45.9299   -3.4108 C.ar        1 MOL      -0.0680
     34 C36       -46.6198  -42.7391   -7.2805 C.3         1 MOL       0.0424
     35 O34       -45.3548  -43.2705   -6.8672 O.3         1 MOL      -0.3473
     36 H1        -40.5069  -49.3379   -5.9103 H           1 MOL       0.2389
     37 H2        -44.2133  -51.8337   -5.3481 H           1 MOL       0.2188
     38 H3        -45.5556  -52.7391   -3.8021 H           1 MOL       0.0636
     39 H4        -47.0152  -54.4882   -3.3142 H           1 MOL       0.0530
     40 H5        -49.5353  -53.2469   -6.4786 H           1 MOL       0.0530
     41 H6        -48.1522  -51.4113   -6.8444 H           1 MOL       0.0636
     42 H7        -45.1349  -47.6058   -6.8535 H           1 MOL       0.0576
     43 H8        -44.9553  -47.4722   -5.0599 H           1 MOL       0.0576
     44 H9        -41.6063  -46.3678   -5.3460 H           1 MOL       0.0708
     45 H10       -41.6478  -46.5712   -7.1319 H           1 MOL       0.0708
     46 H11       -49.5304  -56.4923   -2.9505 H           1 MOL       0.0569
     47 H12       -47.8830  -56.4264   -3.5224 H           1 MOL       0.0569
     48 H13       -48.8582  -58.5677   -4.1182 H           1 MOL       0.0834
     49 H14       -48.3515  -57.6544   -5.5241 H           1 MOL       0.0834
     50 H15       -50.3383  -58.4915   -6.1012 H           1 MOL       0.2032
     51 H16       -51.9019  -56.6002   -6.3411 H           1 MOL       0.0834
     52 H17       -50.2502  -56.3815   -6.8882 H           1 MOL       0.0834
     53 H18       -51.0760  -54.4279   -5.5847 H           1 MOL       0.0569
     54 H19       -51.3591  -55.4144   -4.2038 H           1 MOL       0.0569
     55 H20       -52.4116  -58.5411   -4.9757 H           1 MOL       0.0778
     56 H21       -51.6601  -57.7629   -3.5721 H           1 MOL       0.0778
     57 H22       -51.1503  -59.3790   -4.0867 H           1 MOL       0.0778
     58 H23       -45.1007  -42.9703   -4.1955 H           1 MOL       0.0562
     59 H24       -46.0760  -43.1916   -2.0015 H           1 MOL       0.0600
     60 H25       -47.4928  -45.0932   -1.4780 H           1 MOL       0.0561
     61 H26       -47.1067  -46.4776   -5.4137 H           1 MOL       0.0562
     62 H27       -45.8369  -45.2585   -7.0873 H           1 MOL       0.1000
     63 H28       -47.9820  -46.7434   -3.1911 H           1 MOL       0.0600
     64 H29       -46.4715  -41.7172   -7.6269 H           1 MOL       0.0528
     65 H30       -47.3216  -42.7209   -6.4473 H           1 MOL       0.0528
     66 H31       -47.0318  -43.3272   -8.1013 H           1 MOL       0.0528
@<TRIPOS>BOND
     1     1    15   1
     2     1    16   1
     3    25     1  am
     4     2     4   1
     5    13     2   1
     6     3     4   2
     7     3     5   1
     8    14     3   1
     9     5     6  am
    10     6     7   1
    11     6     8   2
    12     7     9  ar
    13     7    12  ar
    14     9    10  ar
    15    10    24  ar
    16    12    11  ar
    17    11    24  ar
    18    13    14   2
    19    16    13   1
    20    15    14   1
    21    17    18   1
    22    17    22   1
    23    24    17   1
    24    18    19   1
    25    19    20   1
    26    21    20   1
    27    20    23   1
    28    22    21   1
    29    25    26   2
    30    32    25   1
    31    27    28  ar
    32    29    27  ar
    33    28    30  ar
    34    29    31  ar
    35    29    32   1
    36    30    33  ar
    37    31    33  ar
    38    32    35   1
    39    35    34   1
    40     2    36   1
    41     5    37   1
    42     9    38   1
    43    10    39   1
    44    11    40   1
    45    12    41   1
    46    15    42   1
    47    15    43   1
    48    16    44   1
    49    16    45   1
    50    18    46   1
    51    18    47   1
    52    19    48   1
    53    19    49   1
    54    20    50   1
    55    21    51   1
    56    21    52   1
    57    22    53   1
    58    22    54   1
    59    23    55   1
    60    23    56   1
    61    23    57   1
    62    27    58   1
    63    28    59   1
    64    30    60   1
    65    31    61   1
    66    32    62   1
    67    33    63   1
    68    34    64   1
    69    34    65   1
    70    34    66   1
@<TRIPOS>SUBSTRUCTURE
     1  MOL      3

