@<TRIPOS>MOLECULE
2v7a_ligand_016
    66    70
SMALL
GAST_HUCK
****
This file was generated by PARSER (from files_GN.cpp)

@<TRIPOS>ATOM
      1 N1        -46.1412  -45.8659   -4.9458 N.am        1 MOL      -0.2534
      2 N2        -45.1657  -47.8845   -7.7661 N.pl3       1 MOL      -0.2433
      3 C3        -46.0667  -49.2603   -6.3433 C.2         1 MOL       0.1027
      4 N4        -45.5240  -49.1219   -7.5708 N.2         1 MOL      -0.2404
      5 N5        -46.5235  -50.4626   -5.9031 N.am        1 MOL      -0.2391
      6 C6        -46.9532  -50.8072   -4.6921 C.2         1 MOL       0.2181
      7 C7        -47.3737  -52.1131   -4.4202 C.ar        1 MOL       0.0412
      8 O8        -46.8990  -50.0171   -3.7600 O.2         1 MOL      -0.3816
      9 C9        -48.0733  -52.8860   -5.3722 C.ar        1 MOL      -0.0531
     10 C10       -48.5054  -54.1936   -5.0708 C.ar        1 MOL      -0.0381
     11 C11       -47.5236  -54.0279   -2.8864 C.ar        1 MOL      -0.0381
     12 C12       -47.1277  -52.7071   -3.1620 C.ar        1 MOL      -0.0531
     13 C13       -45.4768  -47.1569   -6.6849 C.2         1 MOL       0.0786
     14 C14       -46.0429  -47.9889   -5.7687 C.2         1 MOL       0.0146
     15 C15       -46.4487  -47.2354   -4.5916 C.3         1 MOL       0.0514
     16 C16       -45.4611  -45.7753   -6.2250 C.3         1 MOL       0.0897
     17 N17       -48.6076  -56.1435   -3.5508 N.pl3       1 MOL      -0.2958
     18 C18       -48.9839  -57.1126   -4.5776 C.3         1 MOL       0.0680
     19 C19       -50.4376  -57.5902   -4.3497 C.3         1 MOL      -0.0118
     20 N20       -50.5651  -58.2008   -2.9940 N.4         1 MOL       0.2359
     21 C21       -50.0956  -57.2767   -1.9145 C.3         1 MOL      -0.0118
     22 C22       -48.6787  -56.7140   -2.2075 C.3         1 MOL       0.0680
     23 C23       -51.9278  -58.7312   -2.7284 C.3         1 MOL      -0.0430
     24 C24       -48.2278  -54.8336   -3.8275 C.ar        1 MOL       0.0460
     25 C25       -46.4825  -44.7789   -4.2242 C.2         1 MOL       0.2222
     26 O26       -46.2338  -43.6728   -4.6939 O.2         1 MOL      -0.3907
     27 C27       -49.3694  -43.8187   -2.0419 C.ar        1 MOL      -0.0555
     28 C28       -50.7550  -43.5798   -2.1006 C.ar        1 MOL      -0.0680
     29 C29       -48.6903  -44.4887   -3.0898 C.ar        1 MOL       0.0044
     30 C31       -51.4884  -43.9706   -3.2351 C.ar        1 MOL      -0.0684
     31 C33       -49.4536  -44.8798   -4.2217 C.ar        1 MOL      -0.0555
     32 C20       -47.2132  -44.7599   -2.9445 C.3         1 MOL       0.1804
     33 C35       -50.8333  -44.6130   -4.2984 C.ar        1 MOL      -0.0680
     34 C36       -47.6913  -46.4588   -1.1271 C.3         1 MOL       0.0424
     35 O34       -46.8428  -45.9080   -2.1514 O.3         1 MOL      -0.3473
     36 H1        -44.7669  -47.5384   -8.5800 H           1 MOL       0.2389
     37 H2        -46.4921  -51.1740   -6.5610 H           1 MOL       0.2188
     38 H3        -48.3135  -52.4865   -6.2841 H           1 MOL       0.0636
     39 H4        -49.0764  -54.6470   -5.7828 H           1 MOL       0.0530
     40 H5        -47.2266  -54.3975   -1.9848 H           1 MOL       0.0530
     41 H6        -46.6163  -52.1931   -2.4365 H           1 MOL       0.0636
     42 H7        -47.5164  -47.3739   -4.4173 H           1 MOL       0.0576
     43 H8        -45.8646  -47.5756   -3.7345 H           1 MOL       0.0576
     44 H9        -44.4339  -45.4145   -6.1194 H           1 MOL       0.0708
     45 H10       -46.0112  -45.1482   -6.9314 H           1 MOL       0.0708
     46 H11       -48.3269  -57.9815   -4.5058 H           1 MOL       0.0569
     47 H12       -48.8826  -56.7758   -5.6056 H           1 MOL       0.0569
     48 H13       -50.6877  -58.3319   -5.1139 H           1 MOL       0.0834
     49 H14       -51.1222  -56.7429   -4.4596 H           1 MOL       0.0834
     50 H15       -49.9326  -59.0057   -2.9787 H           1 MOL       0.2032
     51 H16       -50.0621  -57.8168   -0.9626 H           1 MOL       0.0834
     52 H17       -50.7916  -56.4409   -1.8033 H           1 MOL       0.0834
     53 H18       -48.4795  -56.0221   -1.3921 H           1 MOL       0.0569
     54 H19       -47.9457  -57.5243   -2.1201 H           1 MOL       0.0569
     55 H20       -52.2080  -59.4599   -3.4945 H           1 MOL       0.0778
     56 H21       -52.6716  -57.9290   -2.7206 H           1 MOL       0.0778
     57 H22       -51.9569  -59.2437   -1.7621 H           1 MOL       0.0778
     58 H23       -48.8535  -43.4976   -1.2173 H           1 MOL       0.0562
     59 H24       -51.2338  -43.1292   -1.3185 H           1 MOL       0.0600
     60 H25       -52.4977  -43.8035   -3.2798 H           1 MOL       0.0561
     61 H26       -49.0198  -45.3526   -5.0155 H           1 MOL       0.0562
     62 H27       -46.7845  -43.9277   -2.3717 H           1 MOL       0.1000
     63 H28       -51.3675  -44.9060   -5.1193 H           1 MOL       0.0600
     64 H29       -47.1389  -47.2474   -0.6134 H           1 MOL       0.0528
     65 H30       -48.5833  -46.9102   -1.5675 H           1 MOL       0.0528
     66 H31       -47.9881  -45.7033   -0.3954 H           1 MOL       0.0528
@<TRIPOS>BOND
     1     1    15   1
     2     1    16   1
     3    25     1  am
     4     2     4   1
     5    13     2   1
     6     3     4   2
     7     3     5   1
     8    14     3   1
     9     5     6  am
    10     6     7   1
    11     6     8   2
    12     7     9  ar
    13     7    12  ar
    14     9    10  ar
    15    10    24  ar
    16    12    11  ar
    17    11    24  ar
    18    13    14   2
    19    16    13   1
    20    15    14   1
    21    17    18   1
    22    17    22   1
    23    24    17   1
    24    18    19   1
    25    19    20   1
    26    21    20   1
    27    20    23   1
    28    22    21   1
    29    25    26   2
    30    32    25   1
    31    27    28  ar
    32    29    27  ar
    33    28    30  ar
    34    29    31  ar
    35    29    32   1
    36    30    33  ar
    37    31    33  ar
    38    32    35   1
    39    35    34   1
    40     2    36   1
    41     5    37   1
    42     9    38   1
    43    10    39   1
    44    11    40   1
    45    12    41   1
    46    15    42   1
    47    15    43   1
    48    16    44   1
    49    16    45   1
    50    18    46   1
    51    18    47   1
    52    19    48   1
    53    19    49   1
    54    20    50   1
    55    21    51   1
    56    21    52   1
    57    22    53   1
    58    22    54   1
    59    23    55   1
    60    23    56   1
    61    23    57   1
    62    27    58   1
    63    28    59   1
    64    30    60   1
    65    31    61   1
    66    32    62   1
    67    33    63   1
    68    34    64   1
    69    34    65   1
    70    34    66   1
@<TRIPOS>SUBSTRUCTURE
     1  MOL      3

