@<TRIPOS>MOLECULE
2v7a_ligand_002
    66    70
SMALL
GAST_HUCK
****
This file was generated by PARSER (from files_GN.cpp)

@<TRIPOS>ATOM
      1 N1        -41.0466  -46.0329   -9.9605 N.am        1 MOL      -0.2534
      2 N2        -38.6954  -47.5142  -12.2536 N.pl3       1 MOL      -0.2433
      3 C3        -40.0502  -49.1184  -11.6898 C.2         1 MOL       0.1027
      4 N4        -38.9776  -48.7706  -12.4355 N.2         1 MOL      -0.2404
      5 N5        -40.5720  -50.3707  -11.7526 N.am        1 MOL      -0.2391
      6 C6        -41.6447  -50.8834  -11.1470 C.2         1 MOL       0.2181
      7 C7        -42.1261  -52.1792  -11.4224 C.ar        1 MOL       0.0412
      8 O8        -42.2482  -50.2022  -10.3252 O.2         1 MOL      -0.3816
      9 C9        -41.6799  -52.9309  -12.5406 C.ar        1 MOL      -0.0531
     10 C10       -42.1662  -54.2264  -12.8005 C.ar        1 MOL      -0.0381
     11 C11       -43.6134  -54.0744  -10.8810 C.ar        1 MOL      -0.0381
     12 C12       -43.1097  -52.7900  -10.6000 C.ar        1 MOL      -0.0531
     13 C13       -39.5633  -46.9736  -11.3912 C.2         1 MOL       0.0786
     14 C14       -40.4156  -47.9602  -11.0024 C.2         1 MOL       0.0146
     15 C15       -41.3944  -47.4306  -10.0797 C.3         1 MOL       0.0514
     16 C16       -39.8904  -45.6976  -10.7697 C.3         1 MOL       0.0897
     17 N17       -43.6384  -56.0927  -12.2532 N.pl3       1 MOL      -0.2958
     18 C18       -45.0563  -56.4021  -12.2448 C.3         1 MOL       0.0680
     19 C19       -45.3587  -57.5012  -11.1948 C.3         1 MOL      -0.0118
     20 N20       -44.5001  -58.7165  -11.3732 N.4         1 MOL       0.2359
     21 C21       -43.0506  -58.3540  -11.4895 C.3         1 MOL      -0.0118
     22 C22       -42.7710  -57.2255  -12.5227 C.3         1 MOL       0.0680
     23 C23       -44.9749  -59.6428  -12.4433 C.3         1 MOL      -0.0430
     24 C24       -43.1515  -54.8322  -11.9834 C.ar        1 MOL       0.0460
     25 C25       -41.6967  -45.1313   -9.1985 C.2         1 MOL       0.2222
     26 O26       -41.2857  -43.9742   -9.2041 O.2         1 MOL      -0.3907
     27 C27       -43.8765  -47.6186   -7.6135 C.ar        1 MOL      -0.0555
     28 C28       -44.7601  -48.6533   -7.9642 C.ar        1 MOL      -0.0680
     29 C29       -43.7245  -46.4719   -8.4364 C.ar        1 MOL       0.0044
     30 C31       -45.5274  -48.5583   -9.1350 C.ar        1 MOL      -0.0684
     31 C33       -44.5432  -46.3765   -9.5899 C.ar        1 MOL      -0.0555
     32 C20       -42.7119  -45.4023   -8.1543 C.3         1 MOL       0.1804
     33 C35       -45.4208  -47.4151   -9.9473 C.ar        1 MOL      -0.0680
     34 C36       -40.9073  -46.1688   -6.5636 C.3         1 MOL       0.0424
     35 O34       -42.1347  -45.4546   -6.8229 O.3         1 MOL      -0.3473
     36 H1        -37.9766  -47.0358  -12.6900 H           1 MOL       0.2389
     37 H2        -40.0927  -50.9717  -12.3487 H           1 MOL       0.2188
     38 H3        -41.0128  -52.5321  -13.2037 H           1 MOL       0.0636
     39 H4        -41.8430  -54.7019  -13.6460 H           1 MOL       0.0530
     40 H5        -44.2786  -54.4833  -10.2212 H           1 MOL       0.0530
     41 H6        -43.4548  -52.3153   -9.7599 H           1 MOL       0.0636
     42 H7        -42.3699  -47.5630  -10.5420 H           1 MOL       0.0576
     43 H8        -41.3172  -47.9557   -9.1279 H           1 MOL       0.0576
     44 H9        -39.0537  -45.3523  -10.1557 H           1 MOL       0.0708
     45 H10       -40.1362  -44.9563  -11.5338 H           1 MOL       0.0708
     46 H11       -45.3402  -56.7740  -13.2329 H           1 MOL       0.0569
     47 H12       -45.6924  -55.5340  -12.0571 H           1 MOL       0.0569
     48 H13       -46.4218  -57.7640  -11.2275 H           1 MOL       0.0834
     49 H14       -45.1665  -57.0880  -10.1998 H           1 MOL       0.0834
     50 H15       -44.5916  -59.2495  -10.5035 H           1 MOL       0.2032
     51 H16       -42.4528  -59.2363  -11.7340 H           1 MOL       0.0834
     52 H17       -42.7158  -58.0125  -10.5071 H           1 MOL       0.0834
     53 H18       -41.7097  -56.9752  -12.4542 H           1 MOL       0.0569
     54 H19       -42.9555  -57.5999  -13.5323 H           1 MOL       0.0569
     55 H20       -44.3937  -60.5666  -12.4197 H           1 MOL       0.0778
     56 H21       -44.8813  -59.1990  -13.4348 H           1 MOL       0.0778
     57 H22       -46.0206  -59.9124  -12.2788 H           1 MOL       0.0778
     58 H23       -43.3207  -47.7279   -6.7668 H           1 MOL       0.0562
     59 H24       -44.8440  -49.4792   -7.3666 H           1 MOL       0.0600
     60 H25       -46.1653  -49.3132   -9.3918 H           1 MOL       0.0561
     61 H26       -44.4557  -45.5670  -10.2113 H           1 MOL       0.0562
     62 H27       -43.3358  -44.5028   -8.0879 H           1 MOL       0.1000
     63 H28       -45.9764  -47.3439  -10.8007 H           1 MOL       0.0600
     64 H29       -40.7256  -46.1712   -5.4896 H           1 MOL       0.0528
     65 H30       -40.0682  -45.6689   -7.0499 H           1 MOL       0.0528
     66 H31       -40.9601  -47.2033   -6.9020 H           1 MOL       0.0528
@<TRIPOS>BOND
     1     1    15   1
     2     1    16   1
     3    25     1  am
     4     2     4   1
     5    13     2   1
     6     3     4   2
     7     3     5   1
     8    14     3   1
     9     5     6  am
    10     6     7   1
    11     6     8   2
    12     7     9  ar
    13     7    12  ar
    14     9    10  ar
    15    10    24  ar
    16    12    11  ar
    17    11    24  ar
    18    13    14   2
    19    16    13   1
    20    15    14   1
    21    17    18   1
    22    17    22   1
    23    24    17   1
    24    18    19   1
    25    19    20   1
    26    21    20   1
    27    20    23   1
    28    22    21   1
    29    25    26   2
    30    32    25   1
    31    27    28  ar
    32    29    27  ar
    33    28    30  ar
    34    29    31  ar
    35    29    32   1
    36    30    33  ar
    37    31    33  ar
    38    32    35   1
    39    35    34   1
    40     2    36   1
    41     5    37   1
    42     9    38   1
    43    10    39   1
    44    11    40   1
    45    12    41   1
    46    15    42   1
    47    15    43   1
    48    16    44   1
    49    16    45   1
    50    18    46   1
    51    18    47   1
    52    19    48   1
    53    19    49   1
    54    20    50   1
    55    21    51   1
    56    21    52   1
    57    22    53   1
    58    22    54   1
    59    23    55   1
    60    23    56   1
    61    23    57   1
    62    27    58   1
    63    28    59   1
    64    30    60   1
    65    31    61   1
    66    32    62   1
    67    33    63   1
    68    34    64   1
    69    34    65   1
    70    34    66   1
@<TRIPOS>SUBSTRUCTURE
     1  MOL      3

