@<TRIPOS>MOLECULE
2v7a_ligand_008
    66    70
SMALL
GAST_HUCK
****
This file was generated by PARSER (from files_GN.cpp)

@<TRIPOS>ATOM
      1 N1        -46.8149  -43.7759    1.1529 N.am        1 MOL      -0.2534
      2 N2        -48.0470  -45.7970    3.8577 N.pl3       1 MOL      -0.2433
      3 C3        -48.0814  -47.0883    2.1114 C.2         1 MOL       0.1027
      4 N4        -48.3600  -46.9800    3.4318 N.2         1 MOL      -0.2404
      5 N5        -48.3145  -48.2533    1.4572 N.am        1 MOL      -0.2391
      6 C6        -48.0894  -48.5803    0.1846 C.2         1 MOL       0.2181
      7 C7        -48.3343  -49.8599   -0.3220 C.ar        1 MOL       0.0412
      8 O8        -47.5985  -47.7374   -0.5667 O.2         1 MOL      -0.3816
      9 C9        -47.8754  -50.2457   -1.6153 C.ar        1 MOL      -0.0531
     10 C10       -48.1483  -51.5038   -2.1481 C.ar        1 MOL      -0.0381
     11 C11       -49.2934  -52.1187   -0.1127 C.ar        1 MOL      -0.0381
     12 C12       -49.0559  -50.8449    0.4096 C.ar        1 MOL      -0.0531
     13 C13       -47.5625  -45.0750    2.8426 C.2         1 MOL       0.0786
     14 C14       -47.5755  -45.8490    1.7192 C.2         1 MOL       0.0146
     15 C15       -47.0962  -45.0780    0.5757 C.3         1 MOL       0.0514
     16 C16       -47.0626  -43.7406    2.5802 C.3         1 MOL       0.0897
     17 N17       -49.1716  -53.7167   -1.9463 N.pl3       1 MOL      -0.2958
     18 C18       -49.0475  -54.9444   -1.1717 C.3         1 MOL       0.0680
     19 C19       -48.0729  -55.9105   -1.9013 C.3         1 MOL      -0.0118
     20 N20       -48.4494  -56.1377   -3.3341 N.4         1 MOL       0.2359
     21 C21       -48.6395  -54.8463   -4.0649 C.3         1 MOL      -0.0118
     22 C22       -49.6030  -53.8851   -3.3247 C.3         1 MOL       0.0680
     23 C23       -49.5668  -57.1114   -3.5102 C.3         1 MOL      -0.0430
     24 C24       -48.8755  -52.4880   -1.4210 C.ar        1 MOL       0.0460
     25 C25       -46.3854  -42.7284    0.4281 C.2         1 MOL       0.2222
     26 O26       -46.3134  -42.8629   -0.7941 O.2         1 MOL      -0.3907
     27 C27       -44.3035  -40.6489   -0.7521 C.ar        1 MOL      -0.0555
     28 C28       -43.8894  -39.7237   -1.7232 C.ar        1 MOL      -0.0680
     29 C29       -45.4838  -40.4392    0.0052 C.ar        1 MOL       0.0044
     30 C31       -44.6361  -38.5566   -1.9432 C.ar        1 MOL      -0.0684
     31 C33       -46.2525  -39.2791   -0.2641 C.ar        1 MOL      -0.0555
     32 C20       -45.9123  -41.4677    1.0188 C.3         1 MOL       0.1804
     33 C35       -45.8217  -38.3407   -1.2203 C.ar        1 MOL      -0.0680
     34 C36       -46.5202  -39.9741    2.8796 C.3         1 MOL       0.0424
     35 O34       -46.9324  -40.9635    1.9198 O.3         1 MOL      -0.3473
     36 H1        -48.1759  -45.4715    4.7627 H           1 MOL       0.2389
     37 H2        -48.6647  -48.9630    2.0170 H           1 MOL       0.2188
     38 H3        -47.3275  -49.5963   -2.1909 H           1 MOL       0.0636
     39 H4        -47.7758  -51.7108   -3.0772 H           1 MOL       0.0530
     40 H5        -49.8447  -52.7681    0.4515 H           1 MOL       0.0530
     41 H6        -49.4350  -50.6390    1.3393 H           1 MOL       0.0636
     42 H7        -46.1882  -45.5328    0.1735 H           1 MOL       0.0576
     43 H8        -47.8692  -45.0174   -0.1951 H           1 MOL       0.0576
     44 H9        -47.8332  -43.0126    2.8423 H           1 MOL       0.0708
     45 H10       -46.1504  -43.5618    3.1545 H           1 MOL       0.0708
     46 H11       -50.0269  -55.4075   -1.0436 H           1 MOL       0.0569
     47 H12       -48.6346  -54.7835   -0.1725 H           1 MOL       0.0569
     48 H13       -48.0169  -56.8547   -1.3491 H           1 MOL       0.0834
     49 H14       -47.0685  -55.4796   -1.8788 H           1 MOL       0.0834
     50 H15       -47.6436  -56.5714   -3.7859 H           1 MOL       0.2032
     51 H16       -49.0100  -55.0285   -5.0768 H           1 MOL       0.0834
     52 H17       -47.6618  -54.3620   -4.1697 H           1 MOL       0.0834
     53 H18       -49.6708  -52.9526   -3.8874 H           1 MOL       0.0569
     54 H19       -50.6127  -54.3008   -3.3336 H           1 MOL       0.0569
     55 H20       -49.7407  -57.3001   -4.5706 H           1 MOL       0.0778
     56 H21       -50.4970  -56.7499   -3.0667 H           1 MOL       0.0778
     57 H22       -49.3154  -58.0708   -3.0496 H           1 MOL       0.0778
     58 H23       -43.7321  -41.4800   -0.5929 H           1 MOL       0.0562
     59 H24       -43.0302  -39.8910   -2.2567 H           1 MOL       0.0600
     60 H25       -44.3297  -37.8784   -2.6410 H           1 MOL       0.0561
     61 H26       -47.1358  -39.1227    0.2233 H           1 MOL       0.0562
     62 H27       -45.0281  -41.7300    1.6110 H           1 MOL       0.1000
     63 H28       -46.3700  -37.4965   -1.3956 H           1 MOL       0.0600
     64 H29       -47.3916  -39.6838    3.4661 H           1 MOL       0.0528
     65 H30       -46.1068  -39.0779    2.3989 H           1 MOL       0.0528
     66 H31       -45.7828  -40.3962    3.5689 H           1 MOL       0.0528
@<TRIPOS>BOND
     1     1    15   1
     2     1    16   1
     3    25     1  am
     4     2     4   1
     5    13     2   1
     6     3     4   2
     7     3     5   1
     8    14     3   1
     9     5     6  am
    10     6     7   1
    11     6     8   2
    12     7     9  ar
    13     7    12  ar
    14     9    10  ar
    15    10    24  ar
    16    12    11  ar
    17    11    24  ar
    18    13    14   2
    19    16    13   1
    20    15    14   1
    21    17    18   1
    22    17    22   1
    23    24    17   1
    24    18    19   1
    25    19    20   1
    26    21    20   1
    27    20    23   1
    28    22    21   1
    29    25    26   2
    30    32    25   1
    31    27    28  ar
    32    29    27  ar
    33    28    30  ar
    34    29    31  ar
    35    29    32   1
    36    30    33  ar
    37    31    33  ar
    38    32    35   1
    39    35    34   1
    40     2    36   1
    41     5    37   1
    42     9    38   1
    43    10    39   1
    44    11    40   1
    45    12    41   1
    46    15    42   1
    47    15    43   1
    48    16    44   1
    49    16    45   1
    50    18    46   1
    51    18    47   1
    52    19    48   1
    53    19    49   1
    54    20    50   1
    55    21    51   1
    56    21    52   1
    57    22    53   1
    58    22    54   1
    59    23    55   1
    60    23    56   1
    61    23    57   1
    62    27    58   1
    63    28    59   1
    64    30    60   1
    65    31    61   1
    66    32    62   1
    67    33    63   1
    68    34    64   1
    69    34    65   1
    70    34    66   1
@<TRIPOS>SUBSTRUCTURE
     1  MOL      3

