@<TRIPOS>MOLECULE
2v7a_ligand_062
    66    70
SMALL
GAST_HUCK
****
This file was generated by PARSER (from files_GN.cpp)

@<TRIPOS>ATOM
      1 N1        -49.0339  -41.9628    1.1831 N.am        1 MOL      -0.2534
      2 N2        -51.8779  -43.9846    2.0384 N.pl3       1 MOL      -0.2433
      3 C3        -50.4757  -45.3456    1.0827 C.2         1 MOL       0.1027
      4 N4        -51.6666  -45.2237    1.7158 N.2         1 MOL      -0.2404
      5 N5        -50.0456  -46.5625    0.6737 N.am        1 MOL      -0.2391
      6 C6        -49.0078  -46.8853   -0.0948 C.2         1 MOL       0.2181
      7 C7        -48.7337  -48.2282   -0.3585 C.ar        1 MOL       0.0412
      8 O8        -48.3518  -46.0252   -0.6657 O.2         1 MOL      -0.3816
      9 C9        -48.4219  -48.6736   -1.6683 C.ar        1 MOL      -0.0531
     10 C10       -48.1895  -50.0328   -1.9361 C.ar        1 MOL      -0.0381
     11 C11       -48.4437  -50.5405    0.4261 C.ar        1 MOL      -0.0381
     12 C12       -48.7586  -49.1921    0.6785 C.ar        1 MOL      -0.0531
     13 C13       -50.8343  -43.2444    1.6492 C.2         1 MOL       0.0786
     14 C14       -49.9270  -44.0608    1.0411 C.2         1 MOL       0.0146
     15 C15       -48.7372  -43.2877    0.6855 C.3         1 MOL       0.0514
     16 C16       -50.3674  -41.8761    1.7470 C.3         1 MOL       0.0897
     17 N17       -47.9118  -52.2949   -1.1348 N.pl3       1 MOL      -0.2958
     18 C18       -46.7351  -52.9328   -0.5941 C.3         1 MOL       0.0680
     19 C19       -45.8984  -53.5233   -1.7657 C.3         1 MOL      -0.0118
     20 N20       -46.7039  -54.3974   -2.6794 N.4         1 MOL       0.2359
     21 C21       -47.9409  -53.6991   -3.1549 C.3         1 MOL      -0.0118
     22 C22       -48.7636  -53.0812   -1.9934 C.3         1 MOL       0.0680
     23 C23       -46.9387  -55.7724   -2.1498 C.3         1 MOL      -0.0430
     24 C24       -48.1762  -50.9809   -0.8881 C.ar        1 MOL       0.0460
     25 C25       -48.1797  -40.9203    1.2226 C.2         1 MOL       0.2222
     26 O26       -48.5266  -39.9082    1.8276 O.2         1 MOL      -0.3907
     27 C27       -46.7453  -38.4381    0.0710 C.ar        1 MOL      -0.0555
     28 C28       -46.1350  -37.3878   -0.6417 C.ar        1 MOL      -0.0680
     29 C29       -46.2259  -39.7643    0.0174 C.ar        1 MOL       0.0044
     30 C31       -45.0069  -37.6324   -1.4336 C.ar        1 MOL      -0.0684
     31 C33       -45.0684  -39.9721   -0.7677 C.ar        1 MOL      -0.0555
     32 C20       -46.7743  -40.9418    0.7815 C.3         1 MOL       0.1804
     33 C35       -44.4617  -38.9274   -1.4915 C.ar        1 MOL      -0.0680
     34 C36       -45.9156  -42.3187    2.6408 C.3         1 MOL       0.0424
     35 O34       -45.9137  -41.0693    1.9387 O.3         1 MOL      -0.3473
     36 H1        -52.6494  -43.6528    2.5174 H           1 MOL       0.2389
     37 H2        -50.5992  -47.3068    0.9599 H           1 MOL       0.2188
     38 H3        -48.3879  -48.0110   -2.4505 H           1 MOL       0.0636
     39 H4        -47.9769  -50.3233   -2.8919 H           1 MOL       0.0530
     40 H5        -48.4645  -51.2103    1.1970 H           1 MOL       0.0530
     41 H6        -48.9831  -48.9195    1.6407 H           1 MOL       0.0636
     42 H7        -47.8691  -43.7247    1.1909 H           1 MOL       0.0576
     43 H8        -48.5873  -43.2916   -0.3946 H           1 MOL       0.0576
     44 H9        -51.0137  -41.2118    1.1636 H           1 MOL       0.0708
     45 H10       -50.3555  -41.5722    2.7949 H           1 MOL       0.0708
     46 H11       -47.0341  -53.7287    0.0949 H           1 MOL       0.0569
     47 H12       -46.1068  -52.2348   -0.0281 H           1 MOL       0.0569
     48 H13       -45.0370  -54.0702   -1.3692 H           1 MOL       0.0834
     49 H14       -45.4940  -52.7011   -2.3606 H           1 MOL       0.0834
     50 H15       -46.1294  -54.5311   -3.5151 H           1 MOL       0.2032
     51 H16       -48.5800  -54.3777   -3.7276 H           1 MOL       0.0834
     52 H17       -47.6440  -52.8959   -3.8347 H           1 MOL       0.0834
     53 H18       -49.5952  -52.5048   -2.4051 H           1 MOL       0.0569
     54 H19       -49.2006  -53.8881   -1.3967 H           1 MOL       0.0569
     55 H20       -47.5147  -56.3635   -2.8630 H           1 MOL       0.0778
     56 H21       -47.4797  -55.7604   -1.2008 H           1 MOL       0.0778
     57 H22       -45.9843  -56.2800   -1.9992 H           1 MOL       0.0778
     58 H23       -47.5635  -38.2174    0.6384 H           1 MOL       0.0562
     59 H24       -46.5154  -36.4371   -0.5836 H           1 MOL       0.0600
     60 H25       -44.5664  -36.8722   -1.9630 H           1 MOL       0.0561
     61 H26       -44.6401  -40.8989   -0.8206 H           1 MOL       0.0562
     62 H27       -46.6259  -41.7983    0.1246 H           1 MOL       0.1000
     63 H28       -43.6279  -39.1086   -2.0583 H           1 MOL       0.0600
     64 H29       -45.1729  -42.2610    3.4360 H           1 MOL       0.0528
     65 H30       -45.6416  -43.1357    1.9762 H           1 MOL       0.0528
     66 H31       -46.8837  -42.5225    3.0944 H           1 MOL       0.0528
@<TRIPOS>BOND
     1     1    15   1
     2     1    16   1
     3    25     1  am
     4     2     4   1
     5    13     2   1
     6     3     4   2
     7     3     5   1
     8    14     3   1
     9     5     6  am
    10     6     7   1
    11     6     8   2
    12     7     9  ar
    13     7    12  ar
    14     9    10  ar
    15    10    24  ar
    16    12    11  ar
    17    11    24  ar
    18    13    14   2
    19    16    13   1
    20    15    14   1
    21    17    18   1
    22    17    22   1
    23    24    17   1
    24    18    19   1
    25    19    20   1
    26    21    20   1
    27    20    23   1
    28    22    21   1
    29    25    26   2
    30    32    25   1
    31    27    28  ar
    32    29    27  ar
    33    28    30  ar
    34    29    31  ar
    35    29    32   1
    36    30    33  ar
    37    31    33  ar
    38    32    35   1
    39    35    34   1
    40     2    36   1
    41     5    37   1
    42     9    38   1
    43    10    39   1
    44    11    40   1
    45    12    41   1
    46    15    42   1
    47    15    43   1
    48    16    44   1
    49    16    45   1
    50    18    46   1
    51    18    47   1
    52    19    48   1
    53    19    49   1
    54    20    50   1
    55    21    51   1
    56    21    52   1
    57    22    53   1
    58    22    54   1
    59    23    55   1
    60    23    56   1
    61    23    57   1
    62    27    58   1
    63    28    59   1
    64    30    60   1
    65    31    61   1
    66    32    62   1
    67    33    63   1
    68    34    64   1
    69    34    65   1
    70    34    66   1
@<TRIPOS>SUBSTRUCTURE
     1  MOL      3

