@<TRIPOS>MOLECULE
2v7a_ligand_037
    66    70
SMALL
GAST_HUCK
****
This file was generated by PARSER (from files_GN.cpp)

@<TRIPOS>ATOM
      1 N1        -42.3928  -46.4684   -8.4907 N.am        1 MOL      -0.2534
      2 N2        -39.6729  -46.6744  -10.8392 N.pl3       1 MOL      -0.2433
      3 C3        -40.7475  -48.5588  -10.9740 C.2         1 MOL       0.1027
      4 N4        -39.7306  -47.8145  -11.4669 N.2         1 MOL      -0.2404
      5 N5        -41.1994  -49.7752  -11.3699 N.am        1 MOL      -0.2391
      6 C6        -40.7653  -50.5063  -12.3957 C.2         1 MOL       0.2181
      7 C7        -41.2707  -51.7933  -12.6770 C.ar        1 MOL       0.0412
      8 O8        -39.8767  -50.0436  -13.1093 O.2         1 MOL      -0.3816
      9 C9        -42.0448  -52.5382  -11.7535 C.ar        1 MOL      -0.0531
     10 C10       -42.4641  -53.8551  -12.0401 C.ar        1 MOL      -0.0381
     11 C11       -41.3955  -53.7323  -14.1966 C.ar        1 MOL      -0.0381
     12 C12       -40.9801  -52.4220  -13.9143 C.ar        1 MOL      -0.0531
     13 C13       -40.6451  -46.6246   -9.9208 C.2         1 MOL       0.0786
     14 C14       -41.3263  -47.7994   -9.9696 C.2         1 MOL       0.0146
     15 C15       -42.4575  -47.8036   -9.0595 C.3         1 MOL       0.0514
     16 C16       -41.2454  -45.7134   -8.9636 C.3         1 MOL       0.0897
     17 N17       -42.4973  -55.7963  -13.5435 N.pl3       1 MOL      -0.2958
     18 C18       -42.8371  -56.2559  -14.8839 C.3         1 MOL       0.0680
     19 C19       -44.2198  -56.9616  -14.8650 C.3         1 MOL      -0.0118
     20 N20       -44.2598  -58.0516  -13.8407 N.4         1 MOL       0.2359
     21 C21       -43.8821  -57.5514  -12.4817 C.3         1 MOL      -0.0118
     22 C22       -42.5124  -56.8346  -12.5268 C.3         1 MOL       0.0680
     23 C23       -45.5504  -58.7960  -13.8280 C.3         1 MOL      -0.0430
     24 C24       -42.1446  -54.4949  -13.2673 C.ar        1 MOL       0.0460
     25 C25       -43.2991  -45.9334   -7.6479 C.2         1 MOL       0.2222
     26 O26       -43.0790  -44.8035   -7.2215 O.2         1 MOL      -0.3907
     27 C27       -46.0291  -46.4001   -5.1444 C.ar        1 MOL      -0.0555
     28 C28       -47.0050  -45.7139   -4.3952 C.ar        1 MOL      -0.0680
     29 C29       -45.4768  -45.8332   -6.3210 C.ar        1 MOL       0.0044
     30 C31       -47.4544  -44.4519   -4.8182 C.ar        1 MOL      -0.0684
     31 C33       -45.9421  -44.5543   -6.7190 C.ar        1 MOL      -0.0555
     32 C20       -44.5234  -46.6175   -7.1844 C.3         1 MOL       0.1804
     33 C35       -46.9035  -43.8596   -5.9659 C.ar        1 MOL      -0.0680
     34 C36       -45.7577  -46.5195   -9.3664 C.3         1 MOL       0.0424
     35 O34       -45.2897  -47.2682   -8.2279 O.3         1 MOL      -0.3473
     36 H1        -39.0568  -45.9495  -11.0405 H           1 MOL       0.2389
     37 H2        -41.9485  -50.1265  -10.8631 H           1 MOL       0.2188
     38 H3        -42.2780  -52.1527  -10.8370 H           1 MOL       0.0636
     39 H4        -43.0463  -54.3365  -11.3519 H           1 MOL       0.0530
     40 H5        -41.0743  -54.1578  -15.0674 H           1 MOL       0.0530
     41 H6        -40.4119  -51.9447  -14.6146 H           1 MOL       0.0636
     42 H7        -43.3547  -47.9700   -9.6558 H           1 MOL       0.0576
     43 H8        -42.3479  -48.5815   -8.2977 H           1 MOL       0.0576
     44 H9        -40.5492  -45.4863   -8.1529 H           1 MOL       0.0708
     45 H10       -41.5507  -44.7979   -9.4765 H           1 MOL       0.0708
     46 H11       -42.0740  -56.9545  -15.2363 H           1 MOL       0.0569
     47 H12       -42.9009  -55.4409  -15.6095 H           1 MOL       0.0569
     48 H13       -44.4125  -57.3763  -15.8595 H           1 MOL       0.0834
     49 H14       -44.9937  -56.2165  -14.6528 H           1 MOL       0.0834
     50 H15       -43.5409  -58.7283  -14.1129 H           1 MOL       0.2032
     51 H16       -43.8085  -58.3935  -11.7886 H           1 MOL       0.0834
     52 H17       -44.6401  -56.8600  -12.1021 H           1 MOL       0.0834
     53 H18       -42.2687  -56.4734  -11.5270 H           1 MOL       0.0569
     54 H19       -41.7450  -57.5713  -12.7794 H           1 MOL       0.0569
     55 H20       -45.7678  -59.2008  -14.8184 H           1 MOL       0.0778
     56 H21       -46.3780  -58.1529  -13.5234 H           1 MOL       0.0778
     57 H22       -45.4902  -59.6395  -13.1365 H           1 MOL       0.0778
     58 H23       -45.7394  -47.3283   -4.8306 H           1 MOL       0.0562
     59 H24       -47.4013  -46.1394   -3.5524 H           1 MOL       0.0600
     60 H25       -48.1823  -43.9668   -4.2890 H           1 MOL       0.0561
     61 H26       -45.5825  -44.1128   -7.5711 H           1 MOL       0.0562
     62 H27       -44.1409  -47.4473   -6.5834 H           1 MOL       0.1000
     63 H28       -47.2109  -42.9324   -6.2659 H           1 MOL       0.0600
     64 H29       -46.1547  -47.2240  -10.0946 H           1 MOL       0.0528
     65 H30       -44.9544  -45.9566   -9.8450 H           1 MOL       0.0528
     66 H31       -46.5564  -45.8370   -9.0841 H           1 MOL       0.0528
@<TRIPOS>BOND
     1     1    15   1
     2     1    16   1
     3    25     1  am
     4     2     4   1
     5    13     2   1
     6     3     4   2
     7     3     5   1
     8    14     3   1
     9     5     6  am
    10     6     7   1
    11     6     8   2
    12     7     9  ar
    13     7    12  ar
    14     9    10  ar
    15    10    24  ar
    16    12    11  ar
    17    11    24  ar
    18    13    14   2
    19    16    13   1
    20    15    14   1
    21    17    18   1
    22    17    22   1
    23    24    17   1
    24    18    19   1
    25    19    20   1
    26    21    20   1
    27    20    23   1
    28    22    21   1
    29    25    26   2
    30    32    25   1
    31    27    28  ar
    32    29    27  ar
    33    28    30  ar
    34    29    31  ar
    35    29    32   1
    36    30    33  ar
    37    31    33  ar
    38    32    35   1
    39    35    34   1
    40     2    36   1
    41     5    37   1
    42     9    38   1
    43    10    39   1
    44    11    40   1
    45    12    41   1
    46    15    42   1
    47    15    43   1
    48    16    44   1
    49    16    45   1
    50    18    46   1
    51    18    47   1
    52    19    48   1
    53    19    49   1
    54    20    50   1
    55    21    51   1
    56    21    52   1
    57    22    53   1
    58    22    54   1
    59    23    55   1
    60    23    56   1
    61    23    57   1
    62    27    58   1
    63    28    59   1
    64    30    60   1
    65    31    61   1
    66    32    62   1
    67    33    63   1
    68    34    64   1
    69    34    65   1
    70    34    66   1
@<TRIPOS>SUBSTRUCTURE
     1  MOL      3

