@<TRIPOS>MOLECULE
2v7a_ligand_025
    66    70
SMALL
GAST_HUCK
****
This file was generated by PARSER (from files_GN.cpp)

@<TRIPOS>ATOM
      1 N1        -47.3306  -44.1064   -0.1034 N.am        1 MOL      -0.2534
      2 N2        -49.5663  -46.0585    1.9193 N.pl3       1 MOL      -0.2433
      3 C3        -48.6704  -47.4583    0.5212 C.2         1 MOL       0.1027
      4 N4        -49.5062  -47.3089    1.5717 N.2         1 MOL      -0.2404
      5 N5        -48.4809  -48.6809   -0.0302 N.am        1 MOL      -0.2391
      6 C6        -47.8430  -49.0288   -1.1436 C.2         1 MOL       0.2181
      7 C7        -47.8316  -50.3641   -1.5560 C.ar        1 MOL       0.0412
      8 O8        -47.3566  -48.1794   -1.8798 O.2         1 MOL      -0.3816
      9 C9        -47.9180  -50.7080   -2.9275 C.ar        1 MOL      -0.0531
     10 C10       -47.9483  -52.0519   -3.3417 C.ar        1 MOL      -0.0381
     11 C11       -47.7421  -52.7672   -1.0443 C.ar        1 MOL      -0.0381
     12 C12       -47.7508  -51.4250   -0.6227 C.ar        1 MOL      -0.0531
     13 C13       -48.7703  -45.3397    1.1187 C.2         1 MOL       0.0786
     14 C14       -48.1726  -46.1897    0.2357 C.2         1 MOL       0.0146
     15 C15       -47.2431  -45.4606   -0.6165 C.3         1 MOL       0.0514
     16 C16       -48.3336  -43.9639    0.9351 C.3         1 MOL       0.0897
     17 N17       -47.8493  -54.4322   -2.8254 N.pl3       1 MOL      -0.2958
     18 C18       -48.7174  -54.9216   -3.8836 C.3         1 MOL       0.0680
     19 C19       -49.5964  -56.0831   -3.3458 C.3         1 MOL      -0.0118
     20 N20       -48.7601  -57.1426   -2.7018 N.4         1 MOL       0.2359
     21 C21       -47.8673  -56.5916   -1.6382 C.3         1 MOL      -0.0118
     22 C22       -47.0054  -55.4429   -2.2132 C.3         1 MOL       0.0680
     23 C23       -49.5645  -58.3001   -2.2232 C.3         1 MOL      -0.0430
     24 C24       -47.8481  -53.1197   -2.4148 C.ar        1 MOL       0.0460
     25 C25       -46.5515  -43.1030   -0.5421 C.2         1 MOL       0.2222
     26 O26       -45.7083  -43.3503   -1.3995 O.2         1 MOL      -0.3907
     27 C27       -45.7420  -42.4526    2.2060 C.ar        1 MOL      -0.0555
     28 C28       -45.4984  -42.2087    3.5739 C.ar        1 MOL      -0.0680
     29 C29       -46.3230  -41.4674    1.3703 C.ar        1 MOL       0.0044
     30 C31       -45.8870  -40.9841    4.1425 C.ar        1 MOL      -0.0684
     31 C33       -46.6503  -40.2177    1.9572 C.ar        1 MOL      -0.0555
     32 C20       -46.6420  -41.7101   -0.0815 C.3         1 MOL       0.1804
     33 C35       -46.4586  -39.9857    3.3330 C.ar        1 MOL      -0.0680
     34 C36       -44.8287  -40.0565   -0.6506 C.3         1 MOL       0.0424
     35 O34       -45.9947  -40.8102   -1.0160 O.3         1 MOL      -0.3473
     36 H1        -50.0955  -45.7056    2.6524 H           1 MOL       0.2389
     37 H2        -48.9308  -49.4025    0.4366 H           1 MOL       0.2188
     38 H3        -47.9822  -49.9793   -3.6436 H           1 MOL       0.0636
     39 H4        -47.9899  -52.2423   -4.3460 H           1 MOL       0.0530
     40 H5        -47.7194  -53.4924   -0.3248 H           1 MOL       0.0530
     41 H6        -47.6841  -51.2330    0.3805 H           1 MOL       0.0636
     42 H7        -46.2369  -45.8709   -0.5015 H           1 MOL       0.0576
     43 H8        -47.5650  -45.5069   -1.6588 H           1 MOL       0.0576
     44 H9        -49.1735  -43.3408    0.6048 H           1 MOL       0.0708
     45 H10       -47.9126  -43.5872    1.8728 H           1 MOL       0.0708
     46 H11       -48.1105  -55.2802   -4.7199 H           1 MOL       0.0569
     47 H12       -49.3970  -54.1588   -4.2724 H           1 MOL       0.0569
     48 H13       -50.1543  -56.5100   -4.1846 H           1 MOL       0.0834
     49 H14       -50.3186  -55.6823   -2.6266 H           1 MOL       0.0834
     50 H15       -48.1390  -57.5027   -3.4282 H           1 MOL       0.2032
     51 H16       -47.1954  -57.3734   -1.2738 H           1 MOL       0.0834
     52 H17       -48.4520  -56.2183   -0.7916 H           1 MOL       0.0834
     53 H18       -46.3539  -55.0522   -1.4302 H           1 MOL       0.0569
     54 H19       -46.3390  -55.8498   -2.9794 H           1 MOL       0.0569
     55 H20       -50.1793  -58.7001   -3.0321 H           1 MOL       0.0778
     56 H21       -50.2169  -58.0136   -1.3944 H           1 MOL       0.0778
     57 H22       -48.9033  -59.1017   -1.8891 H           1 MOL       0.0778
     58 H23       -45.4877  -43.3679    1.8357 H           1 MOL       0.0562
     59 H24       -45.0762  -42.9335    4.1627 H           1 MOL       0.0600
     60 H25       -45.7598  -40.8204    5.1430 H           1 MOL       0.0561
     61 H26       -47.0774  -39.4817    1.3907 H           1 MOL       0.0562
     62 H27       -47.6979  -41.4589   -0.2110 H           1 MOL       0.1000
     63 H28       -46.7479  -39.0950    3.7502 H           1 MOL       0.0600
     64 H29       -44.3533  -39.6829   -1.5594 H           1 MOL       0.0528
     65 H30       -44.1082  -40.6654   -0.0993 H           1 MOL       0.0528
     66 H31       -45.1355  -39.1997   -0.0485 H           1 MOL       0.0528
@<TRIPOS>BOND
     1     1    15   1
     2     1    16   1
     3    25     1  am
     4     2     4   1
     5    13     2   1
     6     3     4   2
     7     3     5   1
     8    14     3   1
     9     5     6  am
    10     6     7   1
    11     6     8   2
    12     7     9  ar
    13     7    12  ar
    14     9    10  ar
    15    10    24  ar
    16    12    11  ar
    17    11    24  ar
    18    13    14   2
    19    16    13   1
    20    15    14   1
    21    17    18   1
    22    17    22   1
    23    24    17   1
    24    18    19   1
    25    19    20   1
    26    21    20   1
    27    20    23   1
    28    22    21   1
    29    25    26   2
    30    32    25   1
    31    27    28  ar
    32    29    27  ar
    33    28    30  ar
    34    29    31  ar
    35    29    32   1
    36    30    33  ar
    37    31    33  ar
    38    32    35   1
    39    35    34   1
    40     2    36   1
    41     5    37   1
    42     9    38   1
    43    10    39   1
    44    11    40   1
    45    12    41   1
    46    15    42   1
    47    15    43   1
    48    16    44   1
    49    16    45   1
    50    18    46   1
    51    18    47   1
    52    19    48   1
    53    19    49   1
    54    20    50   1
    55    21    51   1
    56    21    52   1
    57    22    53   1
    58    22    54   1
    59    23    55   1
    60    23    56   1
    61    23    57   1
    62    27    58   1
    63    28    59   1
    64    30    60   1
    65    31    61   1
    66    32    62   1
    67    33    63   1
    68    34    64   1
    69    34    65   1
    70    34    66   1
@<TRIPOS>SUBSTRUCTURE
     1  MOL      3

