@<TRIPOS>MOLECULE
2v7a_ligand_046
    66    70
SMALL
GAST_HUCK
****
This file was generated by PARSER (from files_GN.cpp)

@<TRIPOS>ATOM
      1 N1        -45.0035  -42.2259   -1.0363 N.am        1 MOL      -0.2534
      2 N2        -47.2304  -42.0575    1.7758 N.pl3       1 MOL      -0.2433
      3 C3        -47.4136  -44.0621    0.9749 C.2         1 MOL       0.1027
      4 N4        -47.7824  -43.2168    1.9695 N.2         1 MOL      -0.2404
      5 N5        -47.7006  -45.3675    0.7871 N.am        1 MOL      -0.2391
      6 C6        -48.3090  -46.1911    1.6310 C.2         1 MOL       0.2181
      7 C7        -48.4771  -47.5273    1.2961 C.ar        1 MOL       0.0412
      8 O8        -48.6382  -45.8163    2.7554 O.2         1 MOL      -0.3816
      9 C9        -48.2513  -48.5445    2.2624 C.ar        1 MOL      -0.0531
     10 C10       -48.3861  -49.8963    1.9314 C.ar        1 MOL      -0.0381
     11 C11       -49.0724  -49.2734   -0.3207 C.ar        1 MOL      -0.0381
     12 C12       -48.8738  -47.9216   -0.0086 C.ar        1 MOL      -0.0531
     13 C13       -46.4601  -42.0963    0.6828 C.2         1 MOL       0.0786
     14 C14       -46.5612  -43.3446    0.1564 C.2         1 MOL       0.0146
     15 C15       -45.6465  -43.5222   -0.9604 C.3         1 MOL       0.0514
     16 C16       -45.4945  -41.2890   -0.0459 C.3         1 MOL       0.0897
     17 N17       -48.9709  -51.6150    0.3258 N.pl3       1 MOL      -0.2958
     18 C18       -47.8569  -52.5485    0.3076 C.3         1 MOL       0.0680
     19 C19       -48.1216  -53.7352    1.2721 C.3         1 MOL      -0.0118
     20 N20       -49.4644  -54.3638    1.0519 N.4         1 MOL       0.2359
     21 C21       -50.5505  -53.3322    1.0343 C.3         1 MOL      -0.0118
     22 C22       -50.2749  -52.1823    0.0257 C.3         1 MOL       0.0680
     23 C23       -49.5181  -55.3098   -0.0981 C.3         1 MOL      -0.0430
     24 C24       -48.8188  -50.2968    0.6359 C.ar        1 MOL       0.0460
     25 C25       -44.0104  -41.9735   -1.9087 C.2         1 MOL       0.2222
     26 O26       -43.6810  -42.8752   -2.6699 O.2         1 MOL      -0.3907
     27 C27       -44.4201  -38.5077   -1.9295 C.ar        1 MOL      -0.0555
     28 C28       -45.0805  -37.4517   -2.5780 C.ar        1 MOL      -0.0680
     29 C29       -43.9418  -39.6290   -2.6524 C.ar        1 MOL       0.0044
     30 C31       -45.2461  -37.4863   -3.9753 C.ar        1 MOL      -0.0684
     31 C33       -44.1158  -39.6411   -4.0615 C.ar        1 MOL      -0.0555
     32 C20       -43.2030  -40.7487   -1.9937 C.3         1 MOL       0.1804
     33 C35       -44.7609  -38.5771   -4.7210 C.ar        1 MOL      -0.0680
     34 C36       -41.4558  -41.0264   -0.2805 C.3         1 MOL       0.0424
     35 O34       -42.6816  -40.3955   -0.6927 O.3         1 MOL      -0.3473
     36 H1        -47.3240  -41.2964    2.3614 H           1 MOL       0.2389
     37 H2        -47.3699  -45.7570   -0.0365 H           1 MOL       0.2188
     38 H3        -47.9544  -48.3095    3.2159 H           1 MOL       0.0636
     39 H4        -48.2064  -50.5949    2.6581 H           1 MOL       0.0530
     40 H5        -49.3523  -49.5202   -1.2765 H           1 MOL       0.0530
     41 H6        -49.0472  -47.2208   -0.7416 H           1 MOL       0.0636
     42 H7        -44.9234  -44.3120   -0.7331 H           1 MOL       0.0576
     43 H8        -46.2058  -43.7649   -1.8633 H           1 MOL       0.0576
     44 H9        -45.9904  -40.4269   -0.4961 H           1 MOL       0.0708
     45 H10       -44.7119  -40.9639    0.6408 H           1 MOL       0.0708
     46 H11       -46.8999  -52.0873    0.5643 H           1 MOL       0.0569
     47 H12       -47.7325  -52.9273   -0.7090 H           1 MOL       0.0569
     48 H13       -48.0756  -53.3632    2.3007 H           1 MOL       0.0834
     49 H14       -47.3209  -54.4702    1.1599 H           1 MOL       0.0834
     50 H15       -49.6346  -54.9385    1.8777 H           1 MOL       0.2032
     51 H16       -50.6210  -52.8972    2.0372 H           1 MOL       0.0834
     52 H17       -51.5197  -53.7849    0.8132 H           1 MOL       0.0834
     53 H18       -50.2931  -52.5519   -1.0042 H           1 MOL       0.0569
     54 H19       -51.0879  -51.4560    0.1256 H           1 MOL       0.0569
     55 H20       -48.7571  -56.0862    0.0092 H           1 MOL       0.0778
     56 H21       -49.3710  -54.8075   -1.0545 H           1 MOL       0.0778
     57 H22       -50.4920  -55.8055   -0.1213 H           1 MOL       0.0778
     58 H23       -44.3004  -38.4507   -0.9176 H           1 MOL       0.0562
     59 H24       -45.4445  -36.6614   -2.0333 H           1 MOL       0.0600
     60 H25       -45.7262  -36.7205   -4.4497 H           1 MOL       0.0561
     61 H26       -43.7716  -40.4276   -4.6171 H           1 MOL       0.0562
     62 H27       -42.3352  -40.9189   -2.6436 H           1 MOL       0.1000
     63 H28       -44.8836  -38.6004   -5.7392 H           1 MOL       0.0600
     64 H29       -41.2788  -40.7890    0.7725 H           1 MOL       0.0528
     65 H30       -40.6164  -40.6711   -0.8808 H           1 MOL       0.0528
     66 H31       -41.5143  -42.1078   -0.3845 H           1 MOL       0.0528
@<TRIPOS>BOND
     1     1    15   1
     2     1    16   1
     3    25     1  am
     4     2     4   1
     5    13     2   1
     6     3     4   2
     7     3     5   1
     8    14     3   1
     9     5     6  am
    10     6     7   1
    11     6     8   2
    12     7     9  ar
    13     7    12  ar
    14     9    10  ar
    15    10    24  ar
    16    12    11  ar
    17    11    24  ar
    18    13    14   2
    19    16    13   1
    20    15    14   1
    21    17    18   1
    22    17    22   1
    23    24    17   1
    24    18    19   1
    25    19    20   1
    26    21    20   1
    27    20    23   1
    28    22    21   1
    29    25    26   2
    30    32    25   1
    31    27    28  ar
    32    29    27  ar
    33    28    30  ar
    34    29    31  ar
    35    29    32   1
    36    30    33  ar
    37    31    33  ar
    38    32    35   1
    39    35    34   1
    40     2    36   1
    41     5    37   1
    42     9    38   1
    43    10    39   1
    44    11    40   1
    45    12    41   1
    46    15    42   1
    47    15    43   1
    48    16    44   1
    49    16    45   1
    50    18    46   1
    51    18    47   1
    52    19    48   1
    53    19    49   1
    54    20    50   1
    55    21    51   1
    56    21    52   1
    57    22    53   1
    58    22    54   1
    59    23    55   1
    60    23    56   1
    61    23    57   1
    62    27    58   1
    63    28    59   1
    64    30    60   1
    65    31    61   1
    66    32    62   1
    67    33    63   1
    68    34    64   1
    69    34    65   1
    70    34    66   1
@<TRIPOS>SUBSTRUCTURE
     1  MOL      3

