@<TRIPOS>MOLECULE
2v7a_ligand_085
    66    70
SMALL
GAST_HUCK
****
This file was generated by PARSER (from files_GN.cpp)

@<TRIPOS>ATOM
      1 N1        -43.9778  -48.5924   -9.1089 N.am        1 MOL      -0.2534
      2 N2        -44.5906  -50.6535  -11.9927 N.pl3       1 MOL      -0.2433
      3 C3        -45.6075  -51.6328  -10.3451 C.2         1 MOL       0.1027
      4 N4        -45.3062  -51.6883  -11.6635 N.2         1 MOL      -0.2404
      5 N5        -46.3327  -52.5108   -9.6064 N.am        1 MOL      -0.2391
      6 C6        -46.9104  -53.6353  -10.0317 C.2         1 MOL       0.2181
      7 C7        -47.6730  -54.4497   -9.1842 C.ar        1 MOL       0.0412
      8 O8        -46.7988  -53.9737  -11.2068 O.2         1 MOL      -0.3816
      9 C9        -48.7016  -55.2812   -9.6962 C.ar        1 MOL      -0.0531
     10 C10       -49.4627  -56.1139   -8.8540 C.ar        1 MOL      -0.0381
     11 C11       -48.2024  -55.3352   -6.9512 C.ar        1 MOL      -0.0381
     12 C12       -47.4435  -54.4968   -7.7881 C.ar        1 MOL      -0.0531
     13 C13       -44.3947  -49.8822  -10.9201 C.2         1 MOL       0.0786
     14 C14       -45.0101  -50.4784   -9.8609 C.2         1 MOL       0.0146
     15 C15       -44.8048  -49.7022   -8.6526 C.3         1 MOL       0.0514
     16 C16       -43.7209  -48.6502  -10.5335 C.3         1 MOL       0.0897
     17 N17       -49.9571  -57.0053   -6.6273 N.pl3       1 MOL      -0.2958
     18 C18       -51.3862  -57.2286   -6.7838 C.3         1 MOL       0.0680
     19 C19       -51.6811  -58.7364   -7.0008 C.3         1 MOL      -0.0118
     20 N20       -51.0716  -59.5931   -5.9352 N.4         1 MOL       0.2359
     21 C21       -49.6194  -59.2815   -5.7482 C.3         1 MOL      -0.0118
     22 C22       -49.3390  -57.7646   -5.5514 C.3         1 MOL       0.0680
     23 C23       -51.8407  -59.6136   -4.6564 C.3         1 MOL      -0.0430
     24 C24       -49.2328  -56.1735   -7.4554 C.ar        1 MOL       0.0460
     25 C25       -43.5625  -47.6339   -8.2576 C.2         1 MOL       0.2222
     26 O26       -43.9189  -47.7321   -7.0844 O.2         1 MOL      -0.3907
     27 C27       -42.0658  -45.0332  -10.5883 C.ar        1 MOL      -0.0555
     28 C28       -41.1866  -44.8889  -11.6795 C.ar        1 MOL      -0.0680
     29 C29       -42.0363  -46.1893   -9.7632 C.ar        1 MOL       0.0044
     30 C31       -40.2371  -45.8893  -11.9556 C.ar        1 MOL      -0.0684
     31 C33       -41.0447  -47.1649  -10.0372 C.ar        1 MOL      -0.0555
     32 C20       -42.9089  -46.3412   -8.5525 C.3         1 MOL       0.1804
     33 C35       -40.1552  -47.0189  -11.1204 C.ar        1 MOL      -0.0680
     34 C36       -44.9986  -45.1312   -9.1733 C.3         1 MOL       0.0424
     35 O34       -43.8338  -45.2418   -8.3336 O.3         1 MOL      -0.3473
     36 H1        -44.2377  -50.4811  -12.8774 H           1 MOL       0.2389
     37 H2        -46.4636  -52.2718   -8.6749 H           1 MOL       0.2188
     38 H3        -48.9105  -55.2945  -10.6979 H           1 MOL       0.0636
     39 H4        -50.1577  -56.7241   -9.2937 H           1 MOL       0.0530
     40 H5        -48.0229  -55.2877   -5.9467 H           1 MOL       0.0530
     41 H6        -46.7047  -53.9321   -7.3626 H           1 MOL       0.0636
     42 H7        -45.7660  -49.3493   -8.2695 H           1 MOL       0.0576
     43 H8        -44.2926  -50.3021   -7.8978 H           1 MOL       0.0576
     44 H9        -42.6598  -48.7617  -10.7637 H           1 MOL       0.0708
     45 H10       -44.1474  -47.7983  -11.0665 H           1 MOL       0.0708
     46 H11       -51.8406  -56.6533   -7.5935 H           1 MOL       0.0569
     47 H12       -51.8910  -56.8976   -5.8742 H           1 MOL       0.0569
     48 H13       -51.2669  -59.0370   -7.9669 H           1 MOL       0.0834
     49 H14       -52.7612  -58.8972   -7.0539 H           1 MOL       0.0834
     50 H15       -51.1107  -60.5525   -6.2857 H           1 MOL       0.2032
     51 H16       -49.0817  -59.6185   -6.6394 H           1 MOL       0.0834
     52 H17       -49.2032  -59.8391   -4.9063 H           1 MOL       0.0834
     53 H18       -49.7403  -57.4301   -4.5920 H           1 MOL       0.0569
     54 H19       -48.2529  -57.6504   -5.5087 H           1 MOL       0.0569
     55 H20       -52.8728  -59.9162   -4.8380 H           1 MOL       0.0778
     56 H21       -51.8489  -58.6379   -4.1664 H           1 MOL       0.0778
     57 H22       -51.4052  -60.3396   -3.9656 H           1 MOL       0.0778
     58 H23       -42.7207  -44.2693  -10.3967 H           1 MOL       0.0562
     59 H24       -41.2261  -44.0476  -12.2611 H           1 MOL       0.0600
     60 H25       -39.5983  -45.7845  -12.7471 H           1 MOL       0.0561
     61 H26       -40.9635  -47.9897   -9.4406 H           1 MOL       0.0562
     62 H27       -42.1784  -46.1932   -7.7477 H           1 MOL       0.1000
     63 H28       -39.4524  -47.7357  -11.3089 H           1 MOL       0.0600
     64 H29       -45.4901  -44.1835   -8.9584 H           1 MOL       0.0528
     65 H30       -45.7051  -45.9389   -8.9626 H           1 MOL       0.0528
     66 H31       -44.7342  -45.1525  -10.2319 H           1 MOL       0.0528
@<TRIPOS>BOND
     1     1    15   1
     2     1    16   1
     3    25     1  am
     4     2     4   1
     5    13     2   1
     6     3     4   2
     7     3     5   1
     8    14     3   1
     9     5     6  am
    10     6     7   1
    11     6     8   2
    12     7     9  ar
    13     7    12  ar
    14     9    10  ar
    15    10    24  ar
    16    12    11  ar
    17    11    24  ar
    18    13    14   2
    19    16    13   1
    20    15    14   1
    21    17    18   1
    22    17    22   1
    23    24    17   1
    24    18    19   1
    25    19    20   1
    26    21    20   1
    27    20    23   1
    28    22    21   1
    29    25    26   2
    30    32    25   1
    31    27    28  ar
    32    29    27  ar
    33    28    30  ar
    34    29    31  ar
    35    29    32   1
    36    30    33  ar
    37    31    33  ar
    38    32    35   1
    39    35    34   1
    40     2    36   1
    41     5    37   1
    42     9    38   1
    43    10    39   1
    44    11    40   1
    45    12    41   1
    46    15    42   1
    47    15    43   1
    48    16    44   1
    49    16    45   1
    50    18    46   1
    51    18    47   1
    52    19    48   1
    53    19    49   1
    54    20    50   1
    55    21    51   1
    56    21    52   1
    57    22    53   1
    58    22    54   1
    59    23    55   1
    60    23    56   1
    61    23    57   1
    62    27    58   1
    63    28    59   1
    64    30    60   1
    65    31    61   1
    66    32    62   1
    67    33    63   1
    68    34    64   1
    69    34    65   1
    70    34    66   1
@<TRIPOS>SUBSTRUCTURE
     1  MOL      3

