@<TRIPOS>MOLECULE
2v7a_ligand_054
    66    70
SMALL
GAST_HUCK
****
This file was generated by PARSER (from files_GN.cpp)

@<TRIPOS>ATOM
      1 N1        -42.7434  -45.9303   -6.8313 N.am        1 MOL      -0.2534
      2 N2        -45.7864  -44.1129   -6.2189 N.pl3       1 MOL      -0.2433
      3 C3        -46.0671  -46.0221   -5.2336 C.2         1 MOL       0.1027
      4 N4        -46.6155  -44.8206   -5.5257 N.2         1 MOL      -0.2404
      5 N5        -46.8021  -46.9084   -4.5421 N.am        1 MOL      -0.2391
      6 C6        -46.5387  -48.1636   -4.1928 C.2         1 MOL       0.2181
      7 C7        -47.4476  -48.9316   -3.4591 C.ar        1 MOL       0.0412
      8 O8        -45.4714  -48.6595   -4.5428 O.2         1 MOL      -0.3816
      9 C9        -48.6973  -48.4085   -3.0035 C.ar        1 MOL      -0.0531
     10 C10       -49.5894  -49.1886   -2.2761 C.ar        1 MOL      -0.0381
     11 C11       -48.0877  -51.0787   -2.4353 C.ar        1 MOL      -0.0381
     12 C12       -47.1835  -50.2918   -3.1430 C.ar        1 MOL      -0.0531
     13 C13       -44.6629  -44.8183   -6.4064 C.2         1 MOL       0.0786
     14 C14       -44.7882  -46.0289   -5.7994 C.2         1 MOL       0.0146
     15 C15       -43.5649  -46.8054   -6.0129 C.3         1 MOL       0.0514
     16 C16       -43.4000  -44.6704   -7.0850 C.3         1 MOL       0.0897
     17 N17       -50.1932  -51.2943   -1.2210 N.pl3       1 MOL      -0.2958
     18 C18       -50.7124  -52.5654   -1.6913 C.3         1 MOL       0.0680
     19 C19       -52.2657  -52.4715   -1.7820 C.3         1 MOL      -0.0118
     20 N20       -52.9055  -51.9940   -0.5150 N.4         1 MOL       0.2359
     21 C21       -52.2708  -50.7314   -0.0199 C.3         1 MOL      -0.0118
     22 C22       -50.7226  -50.8392    0.0500 C.3         1 MOL       0.0680
     23 C23       -53.0219  -53.0554    0.5333 C.3         1 MOL      -0.0430
     24 C24       -49.3190  -50.5449   -1.9573 C.ar        1 MOL       0.0460
     25 C25       -41.5316  -46.2695   -7.3124 C.2         1 MOL       0.2222
     26 O26       -41.0484  -47.3383   -6.9395 O.2         1 MOL      -0.3907
     27 C27       -39.1984  -45.9008  -10.2054 C.ar        1 MOL      -0.0555
     28 C28       -38.9483  -46.5173  -11.4478 C.ar        1 MOL      -0.0680
     29 C29       -40.4209  -46.0959   -9.5096 C.ar        1 MOL       0.0044
     30 C31       -39.9277  -47.3485  -12.0299 C.ar        1 MOL      -0.0684
     31 C33       -41.4013  -46.9144  -10.1298 C.ar        1 MOL      -0.0555
     32 C20       -40.6477  -45.4572   -8.1679 C.3         1 MOL       0.1804
     33 C35       -41.1596  -47.5337  -11.3789 C.ar        1 MOL      -0.0680
     34 C36       -40.2140  -43.2159   -9.1068 C.3         1 MOL       0.0424
     35 O34       -41.0787  -44.0894   -8.3670 O.3         1 MOL      -0.3473
     36 H1        -45.9662  -43.2174   -6.5650 H           1 MOL       0.2389
     37 H2        -47.6742  -46.5718   -4.2852 H           1 MOL       0.2188
     38 H3        -48.9704  -47.4418   -3.1897 H           1 MOL       0.0636
     39 H4        -50.4842  -48.7590   -2.0111 H           1 MOL       0.0530
     40 H5        -47.8224  -52.0423   -2.2137 H           1 MOL       0.0530
     41 H6        -46.2982  -50.7320   -3.4254 H           1 MOL       0.0636
     42 H7        -43.0775  -47.0246   -5.0558 H           1 MOL       0.0576
     43 H8        -43.7886  -47.7385   -6.5415 H           1 MOL       0.0576
     44 H9        -43.6034  -44.5058   -8.1450 H           1 MOL       0.0708
     45 H10       -42.8496  -43.8269   -6.6504 H           1 MOL       0.0708
     46 H11       -50.4219  -53.3614   -0.9999 H           1 MOL       0.0569
     47 H12       -50.3506  -52.8503   -2.6818 H           1 MOL       0.0569
     48 H13       -52.6729  -53.4422   -2.0844 H           1 MOL       0.0834
     49 H14       -52.5262  -51.7688   -2.5824 H           1 MOL       0.0834
     50 H15       -53.8673  -51.7438   -0.7590 H           1 MOL       0.2032
     51 H16       -52.6565  -50.4528    0.9645 H           1 MOL       0.0834
     52 H17       -52.5374  -49.9119   -0.6984 H           1 MOL       0.0834
     53 H18       -50.3136  -49.8874    0.3873 H           1 MOL       0.0569
     54 H19       -50.4440  -51.5653    0.8219 H           1 MOL       0.0569
     55 H20       -53.5614  -52.6675    1.3975 H           1 MOL       0.0778
     56 H21       -52.0478  -53.4133    0.8610 H           1 MOL       0.0778
     57 H22       -53.5923  -53.8982    0.1406 H           1 MOL       0.0778
     58 H23       -38.4594  -45.3219   -9.7993 H           1 MOL       0.0562
     59 H24       -38.0553  -46.3628  -11.9311 H           1 MOL       0.0600
     60 H25       -39.7497  -47.7780  -12.9469 H           1 MOL       0.0561
     61 H26       -42.3035  -47.0601   -9.6796 H           1 MOL       0.0562
     62 H27       -39.6908  -45.4279   -7.6231 H           1 MOL       0.1000
     63 H28       -41.8769  -48.1255  -11.8235 H           1 MOL       0.0600
     64 H29       -40.6204  -42.2041   -9.0279 H           1 MOL       0.0528
     65 H30       -40.2078  -43.4917  -10.1725 H           1 MOL       0.0528
     66 H31       -39.1882  -43.2162   -8.7110 H           1 MOL       0.0528
@<TRIPOS>BOND
     1     1    15   1
     2     1    16   1
     3    25     1  am
     4     2     4   1
     5    13     2   1
     6     3     4   2
     7     3     5   1
     8    14     3   1
     9     5     6  am
    10     6     7   1
    11     6     8   2
    12     7     9  ar
    13     7    12  ar
    14     9    10  ar
    15    10    24  ar
    16    12    11  ar
    17    11    24  ar
    18    13    14   2
    19    16    13   1
    20    15    14   1
    21    17    18   1
    22    17    22   1
    23    24    17   1
    24    18    19   1
    25    19    20   1
    26    21    20   1
    27    20    23   1
    28    22    21   1
    29    25    26   2
    30    32    25   1
    31    27    28  ar
    32    29    27  ar
    33    28    30  ar
    34    29    31  ar
    35    29    32   1
    36    30    33  ar
    37    31    33  ar
    38    32    35   1
    39    35    34   1
    40     2    36   1
    41     5    37   1
    42     9    38   1
    43    10    39   1
    44    11    40   1
    45    12    41   1
    46    15    42   1
    47    15    43   1
    48    16    44   1
    49    16    45   1
    50    18    46   1
    51    18    47   1
    52    19    48   1
    53    19    49   1
    54    20    50   1
    55    21    51   1
    56    21    52   1
    57    22    53   1
    58    22    54   1
    59    23    55   1
    60    23    56   1
    61    23    57   1
    62    27    58   1
    63    28    59   1
    64    30    60   1
    65    31    61   1
    66    32    62   1
    67    33    63   1
    68    34    64   1
    69    34    65   1
    70    34    66   1
@<TRIPOS>SUBSTRUCTURE
     1  MOL      3

