@<TRIPOS>MOLECULE
2v7a_ligand_035
    66    70
SMALL
GAST_HUCK
****
This file was generated by PARSER (from files_GN.cpp)

@<TRIPOS>ATOM
      1 N1        -49.3259  -41.8411   -0.4116 N.am        1 MOL      -0.2534
      2 N2        -52.2055  -43.7717   -1.3899 N.pl3       1 MOL      -0.2433
      3 C3        -50.5147  -45.1439   -1.4651 C.2         1 MOL       0.1027
      4 N4        -51.8522  -45.0084   -1.5960 N.2         1 MOL      -0.2404
      5 N5        -49.9040  -46.3506   -1.5525 N.am        1 MOL      -0.2391
      6 C6        -48.6113  -46.6576   -1.5055 C.2         1 MOL       0.2181
      7 C7        -48.1929  -47.9849   -1.5238 C.ar        1 MOL       0.0412
      8 O8        -47.7520  -45.7841   -1.4962 O.2         1 MOL      -0.3816
      9 C9        -48.9099  -49.0023   -0.8429 C.ar        1 MOL      -0.0531
     10 C10       -48.4551  -50.3320   -0.8266 C.ar        1 MOL      -0.0381
     11 C11       -46.5748  -49.7113   -2.2043 C.ar        1 MOL      -0.0381
     12 C12       -47.0100  -48.3764   -2.2006 C.ar        1 MOL      -0.0531
     13 C13       -51.1230  -43.0460   -1.0929 C.2         1 MOL       0.0786
     14 C14       -50.0421  -43.8699   -1.1626 C.2         1 MOL       0.0146
     15 C15       -48.8434  -43.1575   -0.7665 C.3         1 MOL       0.0514
     16 C16       -50.7544  -41.7084   -0.6450 C.3         1 MOL       0.0897
     17 N17       -46.8487  -52.0422   -1.5202 N.pl3       1 MOL      -0.2958
     18 C18       -46.8076  -52.8725   -0.3274 C.3         1 MOL       0.0680
     19 C19       -47.6857  -54.1369   -0.5096 C.3         1 MOL      -0.0118
     20 N20       -47.3045  -54.8731   -1.7554 N.4         1 MOL       0.2359
     21 C21       -47.3066  -53.9816   -2.9564 C.3         1 MOL      -0.0118
     22 C22       -46.4261  -52.7229   -2.7330 C.3         1 MOL       0.0680
     23 C23       -48.1160  -56.1082   -1.9585 C.3         1 MOL      -0.0430
     24 C24       -47.2810  -50.7353   -1.5159 C.ar        1 MOL       0.0460
     25 C25       -48.5772  -40.8486    0.1146 C.2         1 MOL       0.2222
     26 O26       -49.1528  -39.8054    0.4267 O.2         1 MOL      -0.3907
     27 C27       -45.9846  -43.0173   -0.3198 C.ar        1 MOL      -0.0555
     28 C28       -45.5783  -44.3199    0.0222 C.ar        1 MOL      -0.0680
     29 C29       -46.5098  -42.1383    0.6636 C.ar        1 MOL       0.0044
     30 C31       -45.6493  -44.7537    1.3565 C.ar        1 MOL      -0.0684
     31 C33       -46.5531  -42.5877    2.0071 C.ar        1 MOL      -0.0555
     32 C20       -47.1134  -40.8160    0.3087 C.3         1 MOL       0.1804
     33 C35       -46.1168  -43.8783    2.3556 C.ar        1 MOL      -0.0680
     34 C36       -46.2779  -38.8208   -0.8989 C.3         1 MOL       0.0424
     35 O34       -46.4989  -40.2449   -0.8734 O.3         1 MOL      -0.3473
     36 H1        -53.1190  -43.4431   -1.3989 H           1 MOL       0.2389
     37 H2        -50.5060  -47.0983   -1.6739 H           1 MOL       0.2188
     38 H3        -49.7651  -48.7738   -0.3281 H           1 MOL       0.0636
     39 H4        -49.0320  -51.0249   -0.3414 H           1 MOL       0.0530
     40 H5        -45.6919  -49.9209   -2.6791 H           1 MOL       0.0530
     41 H6        -46.4531  -47.6800   -2.7090 H           1 MOL       0.0636
     42 H7        -48.4475  -43.6843    0.0956 H           1 MOL       0.0576
     43 H8        -48.1269  -43.1120   -1.5841 H           1 MOL       0.0576
     44 H9        -50.9753  -40.9711   -1.4209 H           1 MOL       0.0708
     45 H10       -51.2983  -41.4615    0.2704 H           1 MOL       0.0708
     46 H11       -47.1058  -52.3522    0.5841 H           1 MOL       0.0569
     47 H12       -45.7734  -53.1885   -0.1654 H           1 MOL       0.0569
     48 H13       -48.7385  -53.8389   -0.5439 H           1 MOL       0.0834
     49 H14       -47.5434  -54.7851    0.3613 H           1 MOL       0.0834
     50 H15       -46.3377  -55.1831   -1.6260 H           1 MOL       0.2032
     51 H16       -48.3296  -53.6646   -3.1853 H           1 MOL       0.0834
     52 H17       -46.9171  -54.5237   -3.8205 H           1 MOL       0.0834
     53 H18       -45.3775  -53.0175   -2.6389 H           1 MOL       0.0569
     54 H19       -46.5167  -52.1128   -3.6336 H           1 MOL       0.0569
     55 H20       -47.7838  -56.6382   -2.8533 H           1 MOL       0.0778
     56 H21       -49.1774  -55.8740   -2.0695 H           1 MOL       0.0778
     57 H22       -47.9938  -56.7870   -1.1107 H           1 MOL       0.0778
     58 H23       -45.9386  -42.7390   -1.3003 H           1 MOL       0.0562
     59 H24       -45.2124  -44.9476   -0.7021 H           1 MOL       0.0600
     60 H25       -45.3403  -45.6935    1.6070 H           1 MOL       0.0561
     61 H26       -46.9354  -41.9822    2.7410 H           1 MOL       0.0562
     62 H27       -46.8685  -40.1712    1.1646 H           1 MOL       0.1000
     63 H28       -46.1505  -44.1888    3.3284 H           1 MOL       0.0600
     64 H29       -45.8336  -38.5603   -1.8617 H           1 MOL       0.0528
     65 H30       -45.5840  -38.5197   -0.1076 H           1 MOL       0.0528
     66 H31       -47.2158  -38.2718   -0.7894 H           1 MOL       0.0528
@<TRIPOS>BOND
     1     1    15   1
     2     1    16   1
     3    25     1  am
     4     2     4   1
     5    13     2   1
     6     3     4   2
     7     3     5   1
     8    14     3   1
     9     5     6  am
    10     6     7   1
    11     6     8   2
    12     7     9  ar
    13     7    12  ar
    14     9    10  ar
    15    10    24  ar
    16    12    11  ar
    17    11    24  ar
    18    13    14   2
    19    16    13   1
    20    15    14   1
    21    17    18   1
    22    17    22   1
    23    24    17   1
    24    18    19   1
    25    19    20   1
    26    21    20   1
    27    20    23   1
    28    22    21   1
    29    25    26   2
    30    32    25   1
    31    27    28  ar
    32    29    27  ar
    33    28    30  ar
    34    29    31  ar
    35    29    32   1
    36    30    33  ar
    37    31    33  ar
    38    32    35   1
    39    35    34   1
    40     2    36   1
    41     5    37   1
    42     9    38   1
    43    10    39   1
    44    11    40   1
    45    12    41   1
    46    15    42   1
    47    15    43   1
    48    16    44   1
    49    16    45   1
    50    18    46   1
    51    18    47   1
    52    19    48   1
    53    19    49   1
    54    20    50   1
    55    21    51   1
    56    21    52   1
    57    22    53   1
    58    22    54   1
    59    23    55   1
    60    23    56   1
    61    23    57   1
    62    27    58   1
    63    28    59   1
    64    30    60   1
    65    31    61   1
    66    32    62   1
    67    33    63   1
    68    34    64   1
    69    34    65   1
    70    34    66   1
@<TRIPOS>SUBSTRUCTURE
     1  MOL      3

