@<TRIPOS>MOLECULE
2v7a_ligand_001
    66    70
SMALL
GAST_HUCK
****
This file was generated by PARSER (from files_GN.cpp)

@<TRIPOS>ATOM
      1 N1        -40.1911  -46.1493   -9.3732 N.am        1 MOL      -0.2534
      2 N2        -38.7154  -47.3606  -12.4156 N.pl3       1 MOL      -0.2433
      3 C3        -40.3607  -48.7102  -11.9960 C.2         1 MOL       0.1027
      4 N4        -39.3361  -48.4211  -12.8341 N.2         1 MOL      -0.2404
      5 N5        -41.2464  -49.7300  -12.1162 N.am        1 MOL      -0.2391
      6 C6        -41.2461  -50.6877  -13.0422 C.2         1 MOL       0.2181
      7 C7        -42.2675  -51.6390  -13.1015 C.ar        1 MOL       0.0412
      8 O8        -40.3261  -50.7741  -13.8491 O.2         1 MOL      -0.3816
      9 C9        -43.6069  -51.3132  -12.7827 C.ar        1 MOL      -0.0531
     10 C10       -44.6372  -52.2644  -12.9110 C.ar        1 MOL      -0.0381
     11 C11       -43.0272  -53.9177  -13.6191 C.ar        1 MOL      -0.0381
     12 C12       -42.0001  -52.9631  -13.5217 C.ar        1 MOL      -0.0531
     13 C13       -39.2914  -46.9246  -11.2924 C.2         1 MOL       0.0786
     14 C14       -40.3306  -47.7515  -10.9859 C.2         1 MOL       0.0146
     15 C15       -40.9677  -47.3239   -9.7408 C.3         1 MOL       0.0514
     16 C16       -39.1254  -45.8658  -10.3191 C.3         1 MOL       0.0897
     17 N17       -45.3821  -54.5317  -13.4754 N.pl3       1 MOL      -0.2958
     18 C18       -46.7211  -54.1920  -13.9283 C.3         1 MOL       0.0680
     19 C19       -47.7731  -54.6183  -12.8719 C.3         1 MOL      -0.0118
     20 N20       -47.6385  -56.0558  -12.4733 N.4         1 MOL       0.2359
     21 C21       -46.2277  -56.3935  -12.1040 C.3         1 MOL      -0.0118
     22 C22       -45.1865  -55.9403  -13.1655 C.3         1 MOL       0.0680
     23 C23       -48.2500  -57.0156  -13.4381 C.3         1 MOL      -0.0430
     24 C24       -44.3793  -53.5955  -13.3335 C.ar        1 MOL       0.0460
     25 C25       -40.3779  -45.3898   -8.2759 C.2         1 MOL       0.2222
     26 O26       -39.5979  -44.4639   -8.0694 O.2         1 MOL      -0.3907
     27 C27       -43.8789  -45.6285   -6.7476 C.ar        1 MOL      -0.0555
     28 C28       -45.2364  -45.5453   -7.1007 C.ar        1 MOL      -0.0680
     29 C29       -42.8495  -45.4208   -7.6992 C.ar        1 MOL       0.0044
     30 C31       -45.5947  -45.2237   -8.4201 C.ar        1 MOL      -0.0684
     31 C33       -43.2335  -45.0445   -9.0112 C.ar        1 MOL      -0.0555
     32 C20       -41.4265  -45.5734   -7.2604 C.3         1 MOL       0.1804
     33 C35       -44.5940  -44.9510   -9.3676 C.ar        1 MOL      -0.0680
     34 C36       -40.9109  -46.9813   -5.2990 C.3         1 MOL       0.0424
     35 O34       -41.2454  -46.8944   -6.6962 O.3         1 MOL      -0.3473
     36 H1        -37.9460  -46.9559  -12.8378 H           1 MOL       0.2389
     37 H2        -41.9506  -49.7665  -11.4500 H           1 MOL       0.2188
     38 H3        -43.8543  -50.3666  -12.4813 H           1 MOL       0.0636
     39 H4        -45.5822  -51.9783  -12.6474 H           1 MOL       0.0530
     40 H5        -42.7787  -54.8436  -13.9720 H           1 MOL       0.0530
     41 H6        -41.0477  -53.2527  -13.7628 H           1 MOL       0.0636
     42 H7        -42.0159  -47.0876   -9.9246 H           1 MOL       0.0576
     43 H8        -40.8834  -48.1179   -8.9963 H           1 MOL       0.0576
     44 H9        -38.1340  -45.9383   -9.8617 H           1 MOL       0.0708
     45 H10       -39.2569  -44.8917  -10.7979 H           1 MOL       0.0708
     46 H11       -46.9178  -54.7265  -14.8613 H           1 MOL       0.0569
     47 H12       -46.8539  -53.1335  -14.1620 H           1 MOL       0.0569
     48 H13       -48.7774  -54.4117  -13.2529 H           1 MOL       0.0834
     49 H14       -47.6382  -53.9992  -11.9811 H           1 MOL       0.0834
     50 H15       -48.1851  -56.1574  -11.6150 H           1 MOL       0.2032
     51 H16       -46.1203  -57.4668  -11.9217 H           1 MOL       0.0834
     52 H17       -45.9966  -55.8909  -11.1604 H           1 MOL       0.0834
     53 H18       -44.2009  -56.1606  -12.7487 H           1 MOL       0.0569
     54 H19       -45.2962  -56.5369  -14.0743 H           1 MOL       0.0569
     55 H20       -48.2257  -58.0259  -13.0259 H           1 MOL       0.0778
     56 H21       -47.7283  -57.0192  -14.3962 H           1 MOL       0.0778
     57 H22       -49.2971  -56.7617  -13.6129 H           1 MOL       0.0778
     58 H23       -43.6508  -45.8629   -5.7796 H           1 MOL       0.0562
     59 H24       -45.9574  -45.7205   -6.3991 H           1 MOL       0.0600
     60 H25       -46.5819  -45.1821   -8.6865 H           1 MOL       0.0561
     61 H26       -42.5305  -44.8356   -9.7209 H           1 MOL       0.0562
     62 H27       -41.3051  -44.8063   -6.4827 H           1 MOL       0.1000
     63 H28       -44.8568  -44.6811  -10.3200 H           1 MOL       0.0600
     64 H29       -40.7014  -48.0226   -5.0543 H           1 MOL       0.0528
     65 H30       -41.7413  -46.6411   -4.6767 H           1 MOL       0.0528
     66 H31       -40.0258  -46.3856   -5.0741 H           1 MOL       0.0528
@<TRIPOS>BOND
     1     1    15   1
     2     1    16   1
     3    25     1  am
     4     2     4   1
     5    13     2   1
     6     3     4   2
     7     3     5   1
     8    14     3   1
     9     5     6  am
    10     6     7   1
    11     6     8   2
    12     7     9  ar
    13     7    12  ar
    14     9    10  ar
    15    10    24  ar
    16    12    11  ar
    17    11    24  ar
    18    13    14   2
    19    16    13   1
    20    15    14   1
    21    17    18   1
    22    17    22   1
    23    24    17   1
    24    18    19   1
    25    19    20   1
    26    21    20   1
    27    20    23   1
    28    22    21   1
    29    25    26   2
    30    32    25   1
    31    27    28  ar
    32    29    27  ar
    33    28    30  ar
    34    29    31  ar
    35    29    32   1
    36    30    33  ar
    37    31    33  ar
    38    32    35   1
    39    35    34   1
    40     2    36   1
    41     5    37   1
    42     9    38   1
    43    10    39   1
    44    11    40   1
    45    12    41   1
    46    15    42   1
    47    15    43   1
    48    16    44   1
    49    16    45   1
    50    18    46   1
    51    18    47   1
    52    19    48   1
    53    19    49   1
    54    20    50   1
    55    21    51   1
    56    21    52   1
    57    22    53   1
    58    22    54   1
    59    23    55   1
    60    23    56   1
    61    23    57   1
    62    27    58   1
    63    28    59   1
    64    30    60   1
    65    31    61   1
    66    32    62   1
    67    33    63   1
    68    34    64   1
    69    34    65   1
    70    34    66   1
@<TRIPOS>SUBSTRUCTURE
     1  MOL      3

